{
  "completed_at": "20180412T174901Z",
  "completed_status": "Success",
  "created_at": "2018-04-12 11:47:49 -0600",
  "current_step": 37,
  "description": "Autogenerated 1",
  "eplusout_err": "Program Version,EnergyPlus, Version 8.8.0-7c3bbe4830, YMD=2018.04.12 11:48,IDD_Version 8.8.0\n   ** Warning ** ProcessScheduleInput: ScheduleTypeLimits=\"CONTROLMODE\", Unit Type=\"CONTROLMODE\" is invalid.\n   ** Warning ** ProcessScheduleInput: ScheduleTypeLimits=\"LINEARPOWERDENSITY\", Unit Type=\"LINEARPOWERDENSITY\" is invalid.\n   ** Warning ** ProcessScheduleInput: ScheduleTypeLimits=\"VOLUMETRICFLOWRATE\", Unit Type=\"VOLUMETRICFLOWRATE\" is invalid.\n   ** Warning ** ProcessScheduleInput: Schedule:Day:Interval=\"HVAC AVAILABILITY SCHEDULE SATURDAY\", Blank Schedule Type Limits Name input -- will not be validated.\n   ** Warning ** ProcessScheduleInput: Schedule:Day:Interval=\"HVAC AVAILABILITY SCHEDULE SUNDAY\", Blank Schedule Type Limits Name input -- will not be validated.\n   ** Warning ** ProcessScheduleInput: Schedule:Day:Interval=\"HVAC AVAILABILITY SCHEDULE WEEKDAY\", Blank Schedule Type Limits Name input -- will not be validated.\n   ** Warning ** ProcessScheduleInput: Schedule:Day:Interval=\"SCHEDULE DAY 1\", , One or more values are not integer as required by Schedule Type Limits Name=ONOFF 1\n   ** Warning ** ProcessScheduleInput: Schedule:Day:Interval=\"SCHEDULE DAY 10\", Blank Schedule Type Limits Name input -- will not be validated.\n   ** Warning ** ProcessScheduleInput: Schedule:Day:Interval=\"SCHEDULE DAY 11\", Blank Schedule Type Limits Name input -- will not be validated.\n   ** Warning ** ProcessScheduleInput: Schedule:Day:Interval=\"SCHEDULE DAY 12\", Blank Schedule Type Limits Name input -- will not be validated.\n   ** Warning ** ProcessScheduleInput: Schedule:Day:Interval=\"SCHEDULE DAY 13\", Blank Schedule Type Limits Name input -- will not be validated.\n   ** Warning ** ProcessScheduleInput: Schedule:Day:Interval=\"SCHEDULE DAY 14\", Blank Schedule Type Limits Name input -- will not be validated.\n   ** Warning ** ProcessScheduleInput: Schedule:Day:Interval=\"SCHEDULE DAY 15\", Blank Schedule Type Limits Name input -- will not be validated.\n   ** Warning ** ProcessScheduleInput: Schedule:Day:Interval=\"SCHEDULE DAY 16\", Blank Schedule Type Limits Name input -- will not be validated.\n   ** Warning ** ProcessScheduleInput: Schedule:Day:Interval=\"SCHEDULE DAY 17\", Blank Schedule Type Limits Name input -- will not be validated.\n   ** Warning ** ProcessScheduleInput: Schedule:Day:Interval=\"SCHEDULE DAY 18\", Blank Schedule Type Limits Name input -- will not be validated.\n   ** Warning ** ProcessScheduleInput: Schedule:Day:Interval=\"SCHEDULE DAY 19\", Blank Schedule Type Limits Name input -- will not be validated.\n   ** Warning ** ProcessScheduleInput: Schedule:Day:Interval=\"SCHEDULE DAY 20\", Blank Schedule Type Limits Name input -- will not be validated.\n   ** Warning ** ProcessScheduleInput: Schedule:Day:Interval=\"SCHEDULE DAY 21\", Blank Schedule Type Limits Name input -- will not be validated.\n   ** Warning ** ProcessScheduleInput: Schedule:Day:Interval=\"SCHEDULE DAY 22\", Blank Schedule Type Limits Name input -- will not be validated.\n   ** Warning ** ProcessScheduleInput: Schedule:Day:Interval=\"SCHEDULE DAY 23\", Blank Schedule Type Limits Name input -- will not be validated.\n   ** Warning ** ProcessScheduleInput: Schedule:Day:Interval=\"SCHEDULE DAY 24\", Blank Schedule Type Limits Name input -- will not be validated.\n   ** Warning ** ProcessScheduleInput: Schedule:Day:Interval=\"SCHEDULE DAY 26\", Blank Schedule Type Limits Name input -- will not be validated.\n   ** Warning ** ProcessScheduleInput: Schedule:Day:Interval=\"SCHEDULE DAY 27\", Blank Schedule Type Limits Name input -- will not be validated.\n   ** Warning ** ProcessScheduleInput: Schedule:Day:Interval=\"SCHEDULE DAY 29\", Blank Schedule Type Limits Name input -- will not be validated.\n   ** Warning ** ProcessScheduleInput: Schedule:Day:Interval=\"SCHEDULE DAY 30\", Blank Schedule Type Limits Name input -- will not be validated.\n   ** Warning ** ProcessScheduleInput: Schedule:Day:Interval=\"SCHEDULE DAY 31\", Blank Schedule Type Limits Name input -- will not be validated.\n   ** Warning ** ProcessScheduleInput: Schedule:Day:Interval=\"SCHEDULE DAY 32\", Blank Schedule Type Limits Name input -- will not be validated.\n   ** Warning ** ProcessScheduleInput: Schedule:Day:Interval=\"SCHEDULE DAY 33\", Blank Schedule Type Limits Name input -- will not be validated.\n   ** Warning ** ProcessScheduleInput: Schedule:Day:Interval=\"SCHEDULE DAY 34\", Blank Schedule Type Limits Name input -- will not be validated.\n   ** Warning ** ProcessScheduleInput: Schedule:Day:Interval=\"SCHEDULE DAY 35\", Blank Schedule Type Limits Name input -- will not be validated.\n   ** Warning ** ProcessScheduleInput: Schedule:Day:Interval=\"SCHEDULE DAY 36\", Blank Schedule Type Limits Name input -- will not be validated.\n   ** Warning ** ProcessScheduleInput: Schedule:Day:Interval=\"SCHEDULE DAY 756\", , One or more values are not integer as required by Schedule Type Limits Name=ONOFF 1\n   ** Warning ** ProcessScheduleInput: Schedule:Day:Interval=\"SCHEDULE DAY 9\", Blank Schedule Type Limits Name input -- will not be validated.\n   ** Warning ** ProcessScheduleInput: Schedule:Year=\"HVAC AVAILABILITY SCHEDULE\", Blank Schedule Type Limits Name input -- will not be validated.\n   ** Warning ** ProcessScheduleInput: Schedule:Constant=\"ALWAYS OFF DISCRETE\", Blank Schedule Type Limits Name input -- will not be validated.\n   ************* Beginning Zone Sizing Calculations\n   ** Warning ** CheckUsedConstructions: There are 15 nominally unused constructions in input.\n   **   ~~~   ** For explicit details on each unused construction, use Output:Diagnostics,DisplayExtraWarnings;\n   ** Warning ** GetSimpleAirModelInputs: ZoneInfiltration:DesignFlowRate=\"ROOM 103 OFFICE OPENOFFICE INFILTRATION\", Design Flow Rate Calculation Method specifies Flow per Exterior Surface Area, but Exterior Surface Area = 0.  0 Infiltration will result.\n   ** Warning ** GetSimpleAirModelInputs: ZoneInfiltration:DesignFlowRate=\"ROOM 202 OFFICE OPENOFFICE INFILTRATION\", Design Flow Rate Calculation Method specifies Flow per Exterior Surface Area, but Exterior Surface Area = 0.  0 Infiltration will result.\n   ************* Beginning System Sizing Calculations\n   ** Warning ** Since Zone Minimum Air Flow Input Method = FIXEDFLOWRATE, input for Constant Minimum Air Flow Fraction will be ignored.\n   **   ~~~   ** Occurs in AirTerminal:SingleDuct:VAV:Reheat = ROOM 102 VAV REHEAT\n   ** Warning ** Since Zone Minimum Air Flow Input Method = FIXEDFLOWRATE, input for Constant Minimum Air Flow Fraction will be ignored.\n   **   ~~~   ** Occurs in AirTerminal:SingleDuct:VAV:Reheat = ROOM 103 VAV REHEAT\n   ** Warning ** Since Zone Minimum Air Flow Input Method = FIXEDFLOWRATE, input for Constant Minimum Air Flow Fraction will be ignored.\n   **   ~~~   ** Occurs in AirTerminal:SingleDuct:VAV:Reheat = ROOM 104 VAV REHEAT\n   ** Warning ** Since Zone Minimum Air Flow Input Method = FIXEDFLOWRATE, input for Constant Minimum Air Flow Fraction will be ignored.\n   **   ~~~   ** Occurs in AirTerminal:SingleDuct:VAV:Reheat = ROOM 105 VAV REHEAT\n   ** Warning ** Since Zone Minimum Air Flow Input Method = FIXEDFLOWRATE, input for Constant Minimum Air Flow Fraction will be ignored.\n   **   ~~~   ** Occurs in AirTerminal:SingleDuct:VAV:Reheat = ROOM 106 VAV REHEAT\n   ** Warning ** Since Zone Minimum Air Flow Input Method = FIXEDFLOWRATE, input for Constant Minimum Air Flow Fraction will be ignored.\n   **   ~~~   ** Occurs in AirTerminal:SingleDuct:VAV:Reheat = ROOM 202 VAV REHEAT\n   ** Warning ** Since Zone Minimum Air Flow Input Method = FIXEDFLOWRATE, input for Constant Minimum Air Flow Fraction will be ignored.\n   **   ~~~   ** Occurs in AirTerminal:SingleDuct:VAV:Reheat = ROOM 203 VAV REHEAT\n   ** Warning ** Since Zone Minimum Air Flow Input Method = FIXEDFLOWRATE, input for Constant Minimum Air Flow Fraction will be ignored.\n   **   ~~~   ** Occurs in AirTerminal:SingleDuct:VAV:Reheat = ROOM 204 VAV REHEAT\n   ** Warning ** Since Zone Minimum Air Flow Input Method = FIXEDFLOWRATE, input for Constant Minimum Air Flow Fraction will be ignored.\n   **   ~~~   ** Occurs in AirTerminal:SingleDuct:VAV:Reheat = ROOM 205 VAV REHEAT\n   ** Warning ** Since Zone Minimum Air Flow Input Method = FIXEDFLOWRATE, input for Constant Minimum Air Flow Fraction will be ignored.\n   **   ~~~   ** Occurs in AirTerminal:SingleDuct:VAV:Reheat = ROOM 206 VAV REHEAT\n   ** Warning ** GetDXCoils: Coil:Cooling:DX:TwoStageWithHumidityControlMode=\"ROOFTOP COOLING COIL\" curve values\n   **   ~~~   ** ... Total Cooling Capacity Function of Temperature Curve Name = FIELD DATA STAGE 1 CAPFT output is not equal to 1.0 (+ or - 10%) at rated conditions.\n   **   ~~~   ** ... Curve output at rated conditions = 0.636\n   ** Warning ** GetDXCoils: Coil:Cooling:DX:TwoStageWithHumidityControlMode=\"ROOFTOP COOLING COIL\" curve values\n   **   ~~~   ** ... Energy Input Ratio Function of Temperature Curve Name = FIELD DATA STAGE 1 EIRFT output is not equal to 1.0 (+ or - 10%) at rated conditions.\n   **   ~~~   ** ... Curve output at rated conditions = 0.723\n   ** Warning ** GetDXCoils: Coil:Cooling:DX:TwoStageWithHumidityControlMode=\"ROOFTOP COOLING COIL\" curve values\n   **   ~~~   ** ... Energy Input Ratio Function of Temperature Curve Name = FIELD DATA STAGE 1&2 EIRFT output is not equal to 1.0 (+ or - 10%) at rated conditions.\n   **   ~~~   ** ... Curve output at rated conditions = 0.836\n   ** Warning ** Output:Meter: invalid Key Name=\"HOURLYMETER\" - not found.\n   ** Warning ** Output:Meter: invalid Key Name=\"DISTRICTCOOLING:FACILITY\" - not found.\n   ** Warning ** Output:Meter: invalid Key Name=\"DISTRICTHEATING:FACILITY\" - not found.\n   ** Warning ** Output:Meter:MeterFileOnly requested for \"Electricity:Facility\" (TimeStep), already on \"Output:Meter\". Will report to both eplusout.eso and eplusout.mtr\n   ************* Testing Individual Branch Integrity\n   ************* All Branches passed integrity testing\n   ************* Testing Individual Supply Air Path Integrity\n   ************* All Supply Air Paths passed integrity testing\n   ************* Testing Individual Return Air Path Integrity\n   ************* All Return Air Paths passed integrity testing\n   ************* No node connection errors were found.\n   ************* Beginning Simulation\n   ** Warning ** Processing Monthly Tabular Reports: Variable names not valid for this simulation\n   **   ~~~   ** ...use Output:Diagnostics,DisplayExtraWarnings; to show more details on individual variables.\n   ** Warning ** CalcDoe2DXCoil: Coil:Cooling:DX:TwoStageWithHumidityControlMode=\"ROOFTOP COOLING COIL\" - Air volume flow rate per watt of rated total cooling capacity is out of range at 2.366E-005 m3/s/W.\n   **   ~~~   **  Environment=RUN PERIOD 1, at Simulation time=01/14 14:30 - 14:45\n   **   ~~~   ** Expected range for VolumeFlowPerRatedTotalCapacity=[2.684E-005--6.713E-005]\n   **   ~~~   ** Possible causes include inconsistent air flow rates in system components,\n   **   ~~~   ** or variable air volume [VAV] system using incorrect coil type.\n   ** Warning ** CalcDoe2DXCoil: Coil:Cooling:DX:TwoStageWithHumidityControlMode \"ROOFTOP COOLING COIL\" - Full load outlet air dry-bulb temperature < 2C. This indicates the possibility of coil frost/freeze. Outlet temperature = -5.50 C.\n   **   ~~~   **  ...Occurrence info = RUN PERIOD 1, 01/14 14:30 - 14:45\n   **   ~~~   ** ... Possible reasons for low outlet air dry-bulb temperatures are: This DX coil\n   **   ~~~   **    1) may have a low inlet air dry-bulb temperature. Inlet air temperature = 13.475 C.\n   **   ~~~   **    2) may have a low air flow rate per watt of cooling capacity. Check inputs.\n   **   ~~~   **    3) is used as part of a HX assisted cooling coil which uses a high sensible effectiveness. Check inputs.\n   ** Warning ** The resource referenced by LifeCycleCost:UsePriceEscalation= \"U.S. AVG  COMMERCIAL-ELECTRICITY\" has no energy cost. \n   **   ~~~   ** ... It is likely that the wrong resource is used. The resource should match the meter used in Utility:Tariff.\n   ** Warning ** The resource referenced by LifeCycleCost:UsePriceEscalation= \"U.S. AVG  COMMERCIAL-DISTILLATE OIL\" has no energy cost. \n   **   ~~~   ** ... It is likely that the wrong resource is used. The resource should match the meter used in Utility:Tariff.\n   ** Warning ** The resource referenced by LifeCycleCost:UsePriceEscalation= \"U.S. AVG  COMMERCIAL-RESIDUAL OIL\" has no energy cost. \n   **   ~~~   ** ... It is likely that the wrong resource is used. The resource should match the meter used in Utility:Tariff.\n   ** Warning ** The resource referenced by LifeCycleCost:UsePriceEscalation= \"U.S. AVG  COMMERCIAL-NATURAL GAS\" has no energy cost. \n   **   ~~~   ** ... It is likely that the wrong resource is used. The resource should match the meter used in Utility:Tariff.\n   ** Warning ** The resource referenced by LifeCycleCost:UsePriceEscalation= \"U.S. AVG  COMMERCIAL-COAL\" has no energy cost. \n   **   ~~~   ** ... It is likely that the wrong resource is used. The resource should match the meter used in Utility:Tariff.\n   ************* Simulation Error Summary *************\n   ** Warning ** The following Report Variables were requested but not generated -- check.rdd file\n   **   ~~~   ** Either the IDF did not contain these elements, the variable name is misspelled,\n   **   ~~~   ** or the requested variable is an advanced output which requires Output : Diagnostics, DisplayAdvancedReportVariables;\n   ************* Key=*, VarName=COOLING SUPPLY TEMPERATURE, Frequency=Hourly\n   ************* Key=*, VarName=HEATING SUPPLY TEMPERATURE, Frequency=Hourly\n   ************* There are 26 unused schedules in input.\n   ************* There are 78 unused week schedules in input.\n   ************* There are 132 unused day schedules in input.\n   ************* Use Output:Diagnostics,DisplayUnusedSchedules; to see them.\n   *************\n   ************* ===== Recurring Error Summary =====\n   ************* The following recurring error messages occurred.\n   *************\n   *************  ** Warning ** CalcDoe2DXCoil: Coil:Cooling:DX:TwoStageWithHumidityControlMode=\"ROOFTOP COOLING COIL\" - Air volume flow rate per watt of rated total cooling capacity is out of range error continues...\n   *************  **   ~~~   **   This error occurred 256508 total times;\n   *************  **   ~~~   **   during Warmup 0 times;\n   *************  **   ~~~   **   during Sizing 0 times.\n   *************  **   ~~~   **   Max=2.683768E-005  Min=2.323187E-005\n   *************\n   *************  ** Warning ** CalcDoe2DXCoil: Coil:Cooling:DX:TwoStageWithHumidityControlMode=\"ROOFTOP COOLING COIL\" - Full load outlet temperature indicates a possibility of frost/freeze error continues. Outlet air temperature statistics follow:\n   *************  **   ~~~   **   This error occurred 2248 total times;\n   *************  **   ~~~   **   during Warmup 0 times;\n   *************  **   ~~~   **   during Sizing 0 times.\n   *************  **   ~~~   **   Max=1.998591  Min=-8.381165\n   *************\n   *************\n   ************* ===== Final Error Summary =====\n   ************* The following error categories occurred.  Consider correcting or noting.\n   ************* Nominally Unused Constructions\n   ************* ..The nominally unused constructions warning is provided to alert you to potential conditions that can cause\n   ************* ..extra time during simulation. Each construction is calculated by the algorithm indicated in the HeatBalanceAlgorithm\n   ************* ..object. You may remove the constructions indicated (when you use the DisplayExtraWarnings option).\n   *************\n   ************* EnergyPlus Warmup Error Summary. During Warmup: 0 Warning; 0 Severe Errors.\n   ************* EnergyPlus Sizing Error Summary. During Sizing: 49 Warning; 0 Severe Errors.\n   ************* EnergyPlus Completed Successfully-- 258819 Warning; 0 Severe Errors; Elapsed Time=00hr 00min 33.80sec\n",
  "file_format_version": "0.0.1",
  "file_paths": [
    "../weather",
    "../seeds",
    "../seed"
  ],
  "hash": "9C3F60C4",
  "measure_paths": [
    "../measures"
  ],
  "name": "Annual Generic Schedules and HVAC oa reset Autosize",
  "osa_id": "85c68af3-17c3-4ab8-94c9-a6c4129bd632",
  "osd_id": "36c49424-1c98-4ce6-86ee-7ac7e416abd8",
  "run_directory": "./run",
  "seed_file": "FRP2_raw_import_updated_ORNL4.osm",
  "started_at": "20180412T174752Z",
  "steps": [
    {
      "arguments": {
        "add_water_tanks": true,
        "dst": false,
        "dx_curves": "Field Data",
        "fan_curves": "Original",
        "fan_eff": 0.9,
        "fan_max_flow": 2.35,
        "fan_power_at_min": 1.41,
        "fan_pr": 1000,
        "hvac_mode": "Enabled",
        "infil_102ach": 1.5,
        "infil_flow_ext_wall_area": 0.1413,
        "infil_redu_day_ff": 0.25,
        "infil_redu_day_weekend": 0.125,
        "infil_redu_night": 0.125,
        "infil_sch_arg": "Always On",
        "int_mass_first_thick_area": 12.5,
        "int_mass_first_thin_area": 50,
        "int_mass_multiplier": 4,
        "int_mass_plenum_thick_area": 135,
        "int_mass_plenum_thin_area": 278,
        "int_mass_room_105_thick_area": 75,
        "int_mass_room_105_thin_area": 500,
        "int_mass_room_106_thick_area": 75,
        "int_mass_room_106_thin_area": 500,
        "int_mass_second_thick_area": 12.5,
        "int_mass_second_thin_area": 50,
        "int_mass_stair_thick_area": 700,
        "int_mass_stair_thin_area": 16,
        "oa_threshold_for_setpoint_ceiling": 7.7,
        "oa_threshold_for_setpoint_floor": 13.89,
        "setpoint_temp_ceiling": 21,
        "setpoint_temp_floor": 13.5,
        "shgc_multiplier": 0.96,
        "stair_doors_mixing": 24.4,
        "stp_mgr": "OA Temp Reset",
        "ufactor_multiplier": 0.51
      },
      "description": "Option 7 Description: This measure will make the ORNL Two Story Flexible Research Platrom OpenStudio Model.",
      "measure_dir_name": "ornl_two_story_frp_model",
      "name": "Option 7 Name",
      "result": {
        "completed_at": "20180412T174755Z",
        "measure_class_name": "OrnlTwoStoryFrpModel",
        "measure_display_name": "Ornl Two Story Frp Model",
        "measure_name": "ornl_two_story_frp_model",
        "measure_taxonomy": "Whole Building.Whole Building Schedules",
        "measure_type": "ModelMeasure",
        "measure_uid": "67cfe500-ee64-40db-acf7-f04bf999950d",
        "measure_version_id": "edd86a32-27a1-40b8-ba18-c16096ecfca1",
        "measure_version_modified": "20180405T190150Z",
        "measure_xml_checksum": "55EF43E6",
        "started_at": "20180412T174754Z",
        "stderr": "",
        "stdout": "[OpenStudio.Measure] <0> OSArgumentVector is deprecated, use OpenStudio::Measure::OSArgumentVector instead.\n",
        "step_errors": [],
        "step_files": [],
        "step_final_condition": "The building finished with 1106 objects.",
        "step_info": [
          "/Users/dgoldwas/Documents/GitHub/NREL/FRP_Models/PAT Projects/PAT_FRP_combined_March_2018/temp_data/analysis_85c68af3-17c3-4ab8-94c9-a6c4129bd632/measures/ornl_two_story_frp_model/resources/FRP2_raw_import_updated_ORNL4.osm was imported with 811 objects.",
          "Setting Calendar Year to 2015.",
          "Reverting Thermal Zone back to original names from IDF file.",
          "Added 4 stories ot the building.",
          "Added 28 ScheduleRuleset objects to the model.",
          "Setting infiltration to 0.1413 CFM per ft^2 of exterior wall for 2F Plenum.",
          "Setting infiltration to 1.5 ACH for Room 102.",
          "Setting infiltration to 0.1413 CFM per ft^2 of exterior wall for Room 103.",
          "Setting infiltration to 0.1413 CFM per ft^2 of exterior wall for Room 201.",
          "Setting infiltration to 0.1413 CFM per ft^2 of exterior wall for Room 203.",
          "Setting infiltration to 1.5 ACH for Room 101.",
          "Setting infiltration to 0.1413 CFM per ft^2 of exterior wall for Room 202.",
          "Setting infiltration to 0.1413 CFM per ft^2 of exterior wall for Room 105.",
          "Setting infiltration to 0.1413 CFM per ft^2 of exterior wall for Room 106.",
          "Setting infiltration to 0.1413 CFM per ft^2 of exterior wall for 1F Plenum.",
          "Setting infiltration to 0.1413 CFM per ft^2 of exterior wall for Room 104.",
          "Setting infiltration to 0.1413 CFM per ft^2 of exterior wall for Room 204.",
          "Setting infiltration to 0.1413 CFM per ft^2 of exterior wall for Room 205.",
          "Setting infiltration to 0.1413 CFM per ft^2 of exterior wall for Room 206.",
          "Adding airloop named RoofTop.",
          "Adjusting nightcycle availability manager.",
          "Configuring System Sizing.",
          "Adding fan named RoofTop Supply Fan",
          "Adding heating coil named RoofTop HeatingCoil.",
          "Adding cooling coil named RoofTop Cooling Coil.",
          "Adding OA system named RooTop OA System.",
          "Adding components to air loop.",
          "Added 10 thermal zones to RoofTop.",
          "Added 2 return air plenums to the model serving 10 zones. 2 occupied zones don't have thermostats.",
          "Adding setpoint manager  OA reset.",
          "Setting Ground Reflectance.",
          "Setting Ground Temperatures.",
          "Setting Water Main Temperatures.",
          "Setting Sizing Parameters to 1.0 for heating and cooling",
          "Setting Simulation Run Period from 1/1 through 12/31.",
          "Setting typcial internal mass for Building Story 1",
          "Setting typcial internal mass for Building Story 2",
          "Setting typcial internal mass for Building Story 3",
          "Setting typcial internal mass for Building Story 4",
          "Setting custom internal mass for Room 101",
          "Setting custom internal mass for Room 105",
          "Room 105 includes internal mass for 4 x 200 gallon water starage tanks",
          "Setting custom internal mass for Room 106",
          "Setting custom internal mass for Room 201",
          "Setting zone mixing to/from zones with doors to unconditioned stair with value of 24.4 (cfm)."
        ],
        "step_initial_condition": "The building started with 794 objects.",
        "step_result": "Success",
        "step_values": [
          {
            "name": "hvac_mode",
            "value": "Enabled"
          },
          {
            "name": "dx_curves",
            "value": "Field Data"
          },
          {
            "name": "fan_curves",
            "value": "Original"
          },
          {
            "name": "fan_eff",
            "value": 0.9
          },
          {
            "name": "fan_pr",
            "value": 1000
          },
          {
            "name": "fan_max_flow",
            "value": 2.35
          },
          {
            "name": "fan_power_at_min",
            "value": 1.41
          },
          {
            "name": "dst",
            "value": false
          },
          {
            "name": "setpoint_temp_floor",
            "value": 13.5
          },
          {
            "name": "oa_threshold_for_setpoint_floor",
            "value": 13.89
          },
          {
            "name": "setpoint_temp_ceiling",
            "value": 21
          },
          {
            "name": "oa_threshold_for_setpoint_ceiling",
            "value": 7.7
          },
          {
            "name": "stp_mgr",
            "value": "OA Temp Reset"
          },
          {
            "name": "infil_sch_arg",
            "value": "Always On"
          },
          {
            "name": "infil_redu_day_weekend",
            "value": 0.125
          },
          {
            "name": "infil_redu_day_ff",
            "value": 0.25
          },
          {
            "name": "infil_redu_night",
            "value": 0.125
          },
          {
            "name": "infil_flow_ext_wall_area",
            "value": 0.1413
          },
          {
            "name": "infil_102ach",
            "value": 1.5
          },
          {
            "name": "stair_doors_mixing",
            "value": 24.4
          },
          {
            "name": "int_mass_first_thin_area",
            "value": 50
          },
          {
            "name": "int_mass_first_thick_area",
            "value": 12.5
          },
          {
            "name": "int_mass_second_thin_area",
            "value": 50
          },
          {
            "name": "int_mass_second_thick_area",
            "value": 12.5
          },
          {
            "name": "int_mass_plenum_thin_area",
            "value": 278
          },
          {
            "name": "int_mass_plenum_thick_area",
            "value": 135
          },
          {
            "name": "int_mass_stair_thin_area",
            "value": 16
          },
          {
            "name": "int_mass_stair_thick_area",
            "value": 700
          },
          {
            "name": "int_mass_room_105_thin_area",
            "value": 500
          },
          {
            "name": "int_mass_room_105_thick_area",
            "value": 75
          },
          {
            "name": "int_mass_room_106_thin_area",
            "value": 500
          },
          {
            "name": "int_mass_room_106_thick_area",
            "value": 75
          },
          {
            "name": "int_mass_multiplier",
            "value": 4
          },
          {
            "name": "add_water_tanks",
            "value": true
          },
          {
            "name": "shgc_multiplier",
            "value": 0.96
          },
          {
            "name": "ufactor_multiplier",
            "value": 0.51
          }
        ],
        "step_warnings": []
      }
    },
    {
      "arguments": {
        "__SKIP__": true,
        "csv_name": "../../../lib/resources/mtr.csv"
      },
      "description": "For calibration to measured data update selected loads and load schedules to match measured data for specific dates",
      "measure_dir_name": "update_rfp_loads_and_schedules_from_measured_data",
      "name": "update_rfp_loads_and_schedules_from_measured_data",
      "result": {
        "completed_at": "20180412T174755Z",
        "measure_class_name": "UpdateRFPLoadsAndSchedulesFromMeasuredData",
        "measure_display_name": "Update RFP Loads and Schedules from Measured Data",
        "measure_name": "update_rfp_loads_and_schedules_from_measured_data",
        "measure_taxonomy": "Envelope.Form",
        "measure_type": "ModelMeasure",
        "measure_uid": "e53d2697-1e13-4969-8ff2-a444e53d6202",
        "measure_version_id": "bf8789cd-552d-43bf-ae4d-f2029faba4ff",
        "measure_version_modified": "20180319T203512Z",
        "measure_xml_checksum": "9DE29E21",
        "started_at": "20180412T174755Z",
        "stderr": "",
        "stdout": "",
        "step_errors": [],
        "step_files": [],
        "step_info": [],
        "step_result": "Skip",
        "step_values": [],
        "step_warnings": []
      }
    },
    {
      "arguments": {
        "add_zone_mixing_variables": false,
        "zone_mixing_coef": 1.01957011384212
      },
      "description": "Option 1 Description: This measure replaces conductive heat transfer with zone mixing wherever air walls are used on matched surfaces or sub-surfaces for walls. A user argument is exposed for a coefficient that represents a target air changes per hour (ACH) for a room where the zone volume/the air wall surface area is the same as its zone height. As the room gets deeper the additional airflow per unit of depth decreases. If two zones have different mixing estimates, the lower will be used. If a smaller portion of an inter-zone wall is an air wall, that will also decrease zone mixing airflow.\n\nA construction will be hard assigned to the matched surfaces using the air wall, and the then boundary condition will be changed to adiabatic. This will avoid including both air mixing and conductive transfer across zones. Zone mixing objects will also be made for sub-surface air walls, but they can't be made adiabatic unless their base surface also is. A warning will be issued if that happens",
      "measure_dir_name": "air_wall_zone_mixing",
      "name": "NoRtu Air Wall",
      "result": {
        "completed_at": "20180412T174755Z",
        "measure_class_name": "AirWallZoneMixing",
        "measure_display_name": "Air Wall Zone Mixing",
        "measure_name": "air_wall_zone_mixing",
        "measure_taxonomy": "HVAC.Distribution",
        "measure_type": "ModelMeasure",
        "measure_uid": "fd04f73e-a530-4144-9e1e-c1878b1394bc",
        "measure_version_id": "52a85fce-6338-4882-a885-61782e113072",
        "measure_version_modified": "20180226T184750Z",
        "measure_xml_checksum": "772B7164",
        "started_at": "20180412T174755Z",
        "stderr": "",
        "stdout": "",
        "step_errors": [],
        "step_files": [],
        "step_final_condition": "The building finished with 20 Zone Mixing Objects.",
        "step_info": [
          "Add zone mixing between Room 102 and Room 103 with flowrate of 7.29 cfm",
          "Add zone mixing between Room 103 and Room 106 with flowrate of 8.72 cfm",
          "Add zone mixing between Room 103 and Room 104 with flowrate of 8.72 cfm",
          "Add zone mixing between Room 103 and Room 105 with flowrate of 8.72 cfm",
          "Add zone mixing between Room 202 and Room 204 with flowrate of 9.55 cfm",
          "Add zone mixing between Room 202 and Room 206 with flowrate of 9.55 cfm",
          "Add zone mixing between Room 202 and Room 205 with flowrate of 9.55 cfm",
          "Add zone mixing between Room 202 and Room 203 with flowrate of 4.44 cfm"
        ],
        "step_initial_condition": "The building started with 4 Zone Mixing Objects.",
        "step_result": "Success",
        "step_values": [
          {
            "name": "zone_mixing_coef",
            "value": 1.01957011384212
          },
          {
            "name": "add_zone_mixing_variables",
            "value": false
          }
        ],
        "step_warnings": [
          "Sub-surfaces shared with Room 102 and Room 103 can't be made adiabatic. Conductive heat transfer will remain in the model for these sub-surfaces.",
          "Sub-surfaces shared with Room 103 and Room 106 can't be made adiabatic. Conductive heat transfer will remain in the model for these sub-surfaces.",
          "Sub-surfaces shared with Room 103 and Room 104 can't be made adiabatic. Conductive heat transfer will remain in the model for these sub-surfaces.",
          "Sub-surfaces shared with Room 103 and Room 105 can't be made adiabatic. Conductive heat transfer will remain in the model for these sub-surfaces.",
          "Sub-surfaces shared with Room 202 and Room 204 can't be made adiabatic. Conductive heat transfer will remain in the model for these sub-surfaces.",
          "Sub-surfaces shared with Room 202 and Room 206 can't be made adiabatic. Conductive heat transfer will remain in the model for these sub-surfaces.",
          "Sub-surfaces shared with Room 202 and Room 205 can't be made adiabatic. Conductive heat transfer will remain in the model for these sub-surfaces.",
          "Sub-surfaces shared with Room 202 and Room 203 can't be made adiabatic. Conductive heat transfer will remain in the model for these sub-surfaces."
        ]
      }
    },
    {
      "arguments": {
        "construction": "2FRP_Roof",
        "r_value": 3.28410513072815
      },
      "description": "Option 1 Description: This measure will allow you to alter the r value and mass of existing opaque layered constructions in your model",
      "measure_dir_name": "alter_construction_properties",
      "name": "NoRtu Roof",
      "result": {
        "completed_at": "20180412T174755Z",
        "measure_class_name": "AlterConstructionProperties",
        "measure_display_name": "Alter Construction Properties",
        "measure_name": "alter_construction_properties",
        "measure_taxonomy": "Envelope.Opaque",
        "measure_type": "ModelMeasure",
        "measure_uid": "db91f125-e5e0-492a-8284-e407fb3c3c85",
        "measure_version_id": "3005ac43-3929-433f-95d5-12b5ba34e5db",
        "measure_version_modified": "20180306T163656Z",
        "measure_xml_checksum": "2609226D",
        "started_at": "20180412T174755Z",
        "stderr": "",
        "stdout": "",
        "step_errors": [],
        "step_files": [],
        "step_final_condition": "2FRP_Roof adj exterior wall insulation started with an R-value of 19.8832 ft^2*h*R/Btu.",
        "step_info": [
          "For construction'2FRP_Roof adj exterior wall insulation', material'Roof Insulation_R-value 3.28410513072815% increase' was altered."
        ],
        "step_initial_condition": "2FRP_Roof started with an R-value of 19.2916 ft^2*h*R/Btu.",
        "step_result": "Success",
        "step_values": [
          {
            "name": "construction",
            "value": "{e33bf188-2037-4ef0-8efb-a6da15b57013}"
          },
          {
            "name": "r_value",
            "value": 3.28410513072815
          }
        ],
        "step_warnings": []
      }
    },
    {
      "arguments": {
        "construction": "2FRP_Ext_Wall",
        "r_value": -18
      },
      "description": "Option 1 Description: This measure will allow you to alter the r value and mass of existing opaque layered constructions in your model",
      "measure_dir_name": "alter_construction_properties",
      "name": "NoRtu Ext Wall",
      "result": {
        "completed_at": "20180412T174755Z",
        "measure_class_name": "AlterConstructionProperties",
        "measure_display_name": "Alter Construction Properties",
        "measure_name": "alter_construction_properties",
        "measure_taxonomy": "Envelope.Opaque",
        "measure_type": "ModelMeasure",
        "measure_uid": "db91f125-e5e0-492a-8284-e407fb3c3c85",
        "measure_version_id": "3005ac43-3929-433f-95d5-12b5ba34e5db",
        "measure_version_modified": "20180306T163656Z",
        "measure_xml_checksum": "2609226D",
        "started_at": "20180412T174755Z",
        "stderr": "",
        "stdout": "",
        "step_errors": [],
        "step_files": [],
        "step_final_condition": "2FRP_Ext_Wall adj exterior wall insulation started with an R-value of 8.04816 ft^2*h*R/Btu.",
        "step_info": [
          "For construction'2FRP_Ext_Wall adj exterior wall insulation', material'ExtWall_R11_Insulation_R-value -18.0% increase' was altered."
        ],
        "step_initial_condition": "2FRP_Ext_Wall started with an R-value of 9.21505 ft^2*h*R/Btu.",
        "step_result": "Success",
        "step_values": [
          {
            "name": "construction",
            "value": "{2bc70002-b433-4974-affa-da512c2df929}"
          },
          {
            "name": "r_value",
            "value": -18
          }
        ],
        "step_warnings": []
      }
    },
    {
      "arguments": {
        "construction": "Rigid Foam Board In.",
        "r_value": -18
      },
      "description": "Option 1 Description: This measure will allow you to alter the r value and mass of existing opaque layered constructions in your model",
      "measure_dir_name": "alter_construction_properties",
      "name": "NoRtu Wall Rigid",
      "result": {
        "completed_at": "20180412T174755Z",
        "measure_class_name": "AlterConstructionProperties",
        "measure_display_name": "Alter Construction Properties",
        "measure_name": "alter_construction_properties",
        "measure_taxonomy": "Envelope.Opaque",
        "measure_type": "ModelMeasure",
        "measure_uid": "db91f125-e5e0-492a-8284-e407fb3c3c85",
        "measure_version_id": "3005ac43-3929-433f-95d5-12b5ba34e5db",
        "measure_version_modified": "20180306T163656Z",
        "measure_xml_checksum": "2609226D",
        "started_at": "20180412T174755Z",
        "stderr": "",
        "stdout": "",
        "step_errors": [],
        "step_files": [],
        "step_final_condition": "Rigid Foam Board In. adj exterior wall insulation started with an R-value of 18.8584 ft^2*h*R/Btu.",
        "step_info": [
          "For construction'Rigid Foam Board In. adj exterior wall insulation', material'2\" Polyisorigid Foam Board_R-value -18.0% increase' was altered."
        ],
        "step_initial_condition": "Rigid Foam Board In. started with an R-value of 20.8516 ft^2*h*R/Btu.",
        "step_result": "Success",
        "step_values": [
          {
            "name": "construction",
            "value": "{61da5983-9cfc-4d58-9128-8592fd02e7eb}"
          },
          {
            "name": "r_value",
            "value": -18
          }
        ],
        "step_warnings": []
      }
    },
    {
      "arguments": {
        "construction": "Hybrid Spray Foam In.",
        "r_value": 12.6
      },
      "description": "Option 1 Description: This measure will allow you to alter the r value and mass of existing opaque layered constructions in your model",
      "measure_dir_name": "alter_construction_properties",
      "name": "NoRtu Wall Foam",
      "result": {
        "completed_at": "20180412T174755Z",
        "measure_class_name": "AlterConstructionProperties",
        "measure_display_name": "Alter Construction Properties",
        "measure_name": "alter_construction_properties",
        "measure_taxonomy": "Envelope.Opaque",
        "measure_type": "ModelMeasure",
        "measure_uid": "db91f125-e5e0-492a-8284-e407fb3c3c85",
        "measure_version_id": "3005ac43-3929-433f-95d5-12b5ba34e5db",
        "measure_version_modified": "20180306T163656Z",
        "measure_xml_checksum": "2609226D",
        "started_at": "20180412T174755Z",
        "stderr": "",
        "stdout": "",
        "step_errors": [],
        "step_files": [],
        "step_final_condition": "Hybrid Spray Foam In. adj exterior wall insulation started with an R-value of 23.4611 ft^2*h*R/Btu.",
        "step_info": [
          "For construction'Hybrid Spray Foam In. adj exterior wall insulation', material'C.C. Spray Foam_R-value 12.6% increase' was altered."
        ],
        "step_initial_condition": "Hybrid Spray Foam In. started with an R-value of 21.2557 ft^2*h*R/Btu.",
        "step_result": "Success",
        "step_values": [
          {
            "name": "construction",
            "value": "{68cb778e-18b9-44e8-80fb-a6fbff811f3c}"
          },
          {
            "name": "r_value",
            "value": 12.6
          }
        ],
        "step_warnings": []
      }
    },
    {
      "arguments": {
        "alter_design_days": false,
        "cooling_adjustment": -0.533051800792674,
        "heating_adjustment": -1.54444290612481
      },
      "description": "Option 1 Description: This measure adjusts heating and cooling setpoints by a user specified number of degrees. This is applied throughout the entire building.",
      "measure_dir_name": "AdjustThermostatSetpointsByDegrees",
      "name": "Adjust Thermostat",
      "result": {
        "completed_at": "20180412T174756Z",
        "measure_class_name": "AdjustThermostatSetpointsByDegrees",
        "measure_display_name": "Adjust Thermostat Setpoints by Degrees",
        "measure_name": "adjust_thermostat_setpoints_by_degrees",
        "measure_taxonomy": "HVAC.HVAC Controls",
        "measure_type": "ModelMeasure",
        "measure_uid": "6e1f34f9-92e1-44ea-9279-de0b9b64f6a1",
        "measure_version_id": "b827cbe2-a870-4bba-b518-f9629bd1fd66",
        "measure_version_modified": "20180228T053359Z",
        "measure_xml_checksum": "4F7846F2",
        "started_at": "20180412T174755Z",
        "stderr": "",
        "stdout": "",
        "step_errors": [],
        "step_files": [],
        "step_final_condition": "Final cooling setpoints used in the model range from 81.009 F to 90.3269 F. Final heating setpoints used in the model range from 57.4556 F to 80.8556 F.",
        "step_info": [],
        "step_initial_condition": "Initial cooling setpoints used in the model range from 81.542 F to 90.86 F. Initial heating setpoints used in the model range from 59 F to 82.4 F.",
        "step_result": "Success",
        "step_values": [
          {
            "name": "cooling_adjustment",
            "value": -0.533051800792674
          },
          {
            "name": "heating_adjustment",
            "value": -1.54444290612481
          },
          {
            "name": "alter_design_days",
            "value": false
          }
        ],
        "step_warnings": [
          "Lowering the cooling setpoint will increase energy use."
        ]
      }
    },
    {
      "arguments": {
        "constant_coefficient": 1,
        "material_and_installation_cost": 0,
        "om_cost": 0,
        "om_frequency": 1,
        "space_infiltration_reduction_percent": -43.6957018456568,
        "space_type": "*Entire Building*",
        "temperature_coefficient": -0.00678923080706363,
        "wind_speed_coefficient": 0.221390998487133,
        "wind_speed_squared_coefficient": 0
      },
      "description": "Option 9 Description: This measure will reduce space infiltration rates by the requested percentage. A cost per square foot of building area can be added to the model.",
      "measure_dir_name": "ReduceSpaceInfiltrationByPercentage",
      "name": "high infil",
      "result": {
        "completed_at": "20180412T174756Z",
        "measure_class_name": "ReduceSpaceInfiltrationByPercentage",
        "measure_display_name": "ReduceSpaceInfiltrationByPercentage",
        "measure_name": "reduce_space_infiltration_by_percentage",
        "measure_taxonomy": "Envelope.Infiltration",
        "measure_type": "ModelMeasure",
        "measure_uid": "6e9de4b1-aa97-4010-80c8-529e53ffe943",
        "measure_version_id": "91ae9c31-2bf4-42b4-95b6-ceed7b9861b6",
        "measure_version_modified": "20180226T181648Z",
        "measure_xml_checksum": "EACB548E",
        "started_at": "20180412T174756Z",
        "stderr": "",
        "stdout": "",
        "step_errors": [],
        "step_files": [],
        "step_final_condition": "14 space infiltration objects in the model were altered affecting 3,528(ft^2) at a total cost of $0.",
        "step_info": [
          "The requested value for Space Infiltration reduction percentage was negative. This will result in an increase in Space Infiltration.",
          "Cost arguments were not provided, no cost objects were added to the model."
        ],
        "step_initial_condition": "The initial model contained 15 space infiltration objects.",
        "step_result": "Success",
        "step_values": [
          {
            "name": "space_type",
            "value": "{6ee06bce-5e11-4b65-81d0-d5196e169f7b}"
          },
          {
            "name": "space_infiltration_reduction_percent",
            "value": -43.6957018456568
          },
          {
            "name": "constant_coefficient",
            "value": 1
          },
          {
            "name": "temperature_coefficient",
            "value": -0.00678923080706363
          },
          {
            "name": "wind_speed_coefficient",
            "value": 0.221390998487133
          },
          {
            "name": "wind_speed_squared_coefficient",
            "value": 0
          },
          {
            "name": "material_and_installation_cost",
            "value": 0
          },
          {
            "name": "om_cost",
            "value": 0
          },
          {
            "name": "om_frequency",
            "value": 1
          }
        ],
        "step_warnings": []
      }
    },
    {
      "arguments": {
        "__SKIP__": false
      },
      "description": "Option 1 Description: This will removed all internal loads assigned directly to spaces. This can be useful if your model started as an IDF, and now you want to assign space types.",
      "measure_dir_name": "RemoveInternalLoadsDirectlyAssignedToSpaces",
      "name": "Remove Space Loads",
      "result": {
        "completed_at": "20180412T174756Z",
        "measure_class_name": "RemoveInternalLoadsDirectlyAssignedToSpaces",
        "measure_display_name": "RemoveInternalLoadsDirectlyAssignedToSpaces",
        "measure_name": "remove_internal_loads_directly_assigned_to_spaces",
        "measure_taxonomy": "Whole Building.Space Types",
        "measure_type": "ModelMeasure",
        "measure_uid": "019999e0-3e0c-4a77-abbf-a3352de12384",
        "measure_version_id": "651f32d8-103f-4b3c-8978-f84604e2de65",
        "measure_version_modified": "20180226T181648Z",
        "measure_xml_checksum": "057E8D9D",
        "started_at": "20180412T174756Z",
        "stderr": "",
        "stdout": "",
        "step_errors": [],
        "step_files": [],
        "step_final_condition": "The building finished with 1 space load instances.",
        "step_info": [],
        "step_initial_condition": "The building started with 61 space load instances.",
        "step_result": "Success",
        "step_values": [],
        "step_warnings": []
      }
    },
    {
      "arguments": {
        "__SKIP__": false,
        "building_type": "MediumOffice",
        "climate_zone": "ASHRAE 169-2006-5A",
        "create_construction_set": true,
        "create_space_types": true,
        "set_building_defaults": true,
        "template": "90.1-2010"
      },
      "description": "Option 1 Description: Create space types and or construction sets for the requested building type, climate zone, and target.",
      "measure_dir_name": "SpaceTypeAndConstructionSetWizard",
      "name": "Space type and Const Set Wizard",
      "result": {
        "completed_at": "20180412T174757Z",
        "measure_class_name": "SpaceTypeAndConstructionSetWizard",
        "measure_display_name": "Space Type and Construction Set Wizard",
        "measure_name": "space_type_and_construction_set_wizard",
        "measure_taxonomy": "Whole Building.Space Types",
        "measure_type": "ModelMeasure",
        "measure_uid": "7c65af63-4316-47c9-b7a5-68d7a019e533",
        "measure_version_id": "fab31378-cdc5-4e17-b24f-d78a244e67c6",
        "measure_version_modified": "20180226T181651Z",
        "measure_xml_checksum": "057E8D9D",
        "started_at": "20180412T174756Z",
        "stderr": "",
        "stdout": "",
        "step_errors": [],
        "step_files": [],
        "step_final_condition": "The building finished with 19 space types and 2 construction sets.",
        "step_info": [
          "Added space type named Office BreakRoom - 90.1-2010",
          "Added space type named Office ClosedOffice - 90.1-2010",
          "Added space type named Office Conference - 90.1-2010",
          "Added space type named Office Corridor - 90.1-2010",
          "Added space type named Office Elec/MechRoom - 90.1-2010",
          "Added space type named Office IT_Room - 90.1-2010",
          "Added space type named Office Lobby - 90.1-2010",
          "Added space type named Office OpenOffice - 90.1-2010",
          "Added space type named Office PrintRoom - 90.1-2010",
          "Added space type named Office Restroom - 90.1-2010",
          "Added space type named Office Stair - 90.1-2010",
          "Added space type named Office Storage - 90.1-2010",
          "Added space type named Office Vending - 90.1-2010",
          "Added space type named Office WholeBuilding - Md Office - 90.1-2010",
          "Added default construction set named 90.1-2010 - Office - ASHRAE 169-2006-5A",
          "Setting default Space Type for building to Office OpenOffice - 90.1-2010",
          "Setting default Construction Set for building to 90.1-2010 - Office - ASHRAE 169-2006-5A",
          "Setting ASHRAE Climate Zone to 5A",
          "Setting Standards Building Type to Office"
        ],
        "step_initial_condition": "The building started with 5 space types and 1 construction sets.",
        "step_result": "Success",
        "step_values": [
          {
            "name": "building_type",
            "value": "MediumOffice"
          },
          {
            "name": "template",
            "value": "90.1-2010"
          },
          {
            "name": "climate_zone",
            "value": "ASHRAE 169-2006-5A"
          },
          {
            "name": "create_space_types",
            "value": true
          },
          {
            "name": "create_construction_set",
            "value": true
          },
          {
            "name": "set_building_defaults",
            "value": true
          }
        ],
        "step_warnings": []
      }
    },
    {
      "arguments": {
        "__SKIP__": false,
        "autosize_airloop": true,
        "autosize_rtu": true,
        "autosize_terminals": true,
        "enable_furnace": true,
        "enable_rtu_econo": true,
        "enable_rtu_oa": true,
        "setup_non_default_space_types": true,
        "update_availability": true,
        "update_infil_sch": true,
        "update_thermostats": true
      },
      "description": "Option 2 Description: This will add OA, update infiltration schedule, enable furnace, update thermostat, and make changes to terminals. It may also autosize some or all elements",
      "measure_dir_name": "update_frp_hvac_to_be_generic",
      "name": "FRP Update HVAC Autosize",
      "result": {
        "completed_at": "20180412T174757Z",
        "measure_class_name": "FrpUpdateHvacToBeGeneric",
        "measure_display_name": "FRP Update HVAC to be Generic",
        "measure_name": "frp_update_hvac_to_be_generic",
        "measure_taxonomy": "HVAC.Whole System",
        "measure_type": "ModelMeasure",
        "measure_uid": "87b6c2a3-f23b-4fe0-8206-36c0462352a4",
        "measure_version_id": "d4d64099-1c69-4657-8694-7b56ae69edad",
        "measure_version_modified": "20180322T202605Z",
        "measure_xml_checksum": "ED6112BA",
        "started_at": "20180412T174757Z",
        "stderr": "",
        "stdout": "",
        "step_errors": [],
        "step_files": [],
        "step_final_condition": "The building finished with 1459 objects.",
        "step_info": [
          "Enabling outdoor air for the RTU",
          " - autosizing min and max air flow rate for controller outdoor air.",
          "Enabling economizer for the RTU",
          " - Setting economizer control type to FixedDryBulb.",
          "Enable RTU furnace",
          " - Changing gas heating coil availability schedule from Always Off Discrete to Always On Discrete.",
          "Update Availability schedules to reflect typical office",
          " - Setting availability schedule for RoofTop to HVAC Availability Schedule",
          " - Times and values for HVAC Availability Schedule default profile are [6,0.0],[22,1.0],[0,0.0]",
          "Update Infiltration schedule to relflect daytime positive pressure",
          " - Setting infiltration schedule for 15 SpaceInfiltrationDesignFlowRate objects.",
          " - Times and values for Infiltration Schedule default profile are [6,1.0],[22,0.25],[0,1.0]",
          "Update Thermostat schedules to reflect typical office",
          " - Setting heating setopint schedule for 24 ThermostatSetpointDualSetpoint objects.",
          " - Times and values for Htg Setpoint Schedule default profile are [6,15.6],[22,21.0],[0,15.6]",
          " - Setting cooling setopint schedule for 24 ThermostatSetpointDualSetpoint objects.",
          " - Times and values for Clg Setpoint Schedule default profile are [6,26.7],[22,24.0],[0,26.7]",
          "Autosize RTU components",
          " - Autosized values for Coil Performance DX Cooling 1",
          " - Autosized values for Coil Performance DX Cooling 2",
          " - Autosized values for Coil Performance DX Cooling 3",
          " - Autosized values for Coil Performance DX Cooling 4",
          " - Autosized values for Field Data Stage 1",
          " - Autosized values for Field Data Stage 1&2",
          " - Autosized values for RoofTop HeatingCoil",
          " - Autosized values for RoofTop Supply Fan",
          "Autosize Terminal components",
          " - Autosized values for Room 102 VAV Reheat",
          " - Autosized values for Room 103 VAV Reheat",
          " - Autosized values for Room 104 VAV Reheat",
          " - Autosized values for Room 105 VAV Reheat",
          " - Autosized values for Room 106 VAV Reheat",
          " - Autosized values for Room 202 VAV Reheat",
          " - Autosized values for Room 203 VAV Reheat",
          " - Autosized values for Room 204 VAV Reheat",
          " - Autosized values for Room 205 VAV Reheat",
          " - Autosized values for Room 206 VAV Reheat",
          " - Autosized values for Room 102 Reheat Coil",
          " - Autosized values for Room 103 Reheat Coil",
          " - Autosized values for Room 104 Reheat Coil",
          " - Autosized values for Room 105 Reheat Coil",
          " - Autosized values for Room 106 Reheat Coil",
          " - Autosized values for Room 202 Reheat Coil",
          " - Autosized values for Room 203 Reheat Coil",
          " - Autosized values for Room 204 Reheat Coil",
          " - Autosized values for Room 205 Reheat Coil",
          " - Autosized values for Room 206 Reheat Coil",
          "Autosize other Air Loop components",
          " - Autosized values for RoofTop",
          " - Autosized values for SizingSystem object for RoofTop",
          "Remove hard assigned space loads",
          " - removing initial space type assignments",
          " - Assigning Office Stair - 90.1-2010 space type to Room 101",
          " - Assigning Office Stair - 90.1-2010 space type to Room 201",
          " - adding always on schedule to Office OpenOffice Ventilation to support downstream measures that expect this",
          " - Assigning FRP Plenum space type to 2F Plenum",
          " - Assigning FRP Plenum space type to 1F Plenum"
        ],
        "step_initial_condition": "The building started with 1433 objects.",
        "step_result": "Success",
        "step_values": [
          {
            "name": "enable_rtu_oa",
            "value": true
          },
          {
            "name": "enable_rtu_econo",
            "value": true
          },
          {
            "name": "enable_furnace",
            "value": true
          },
          {
            "name": "update_availability",
            "value": true
          },
          {
            "name": "update_infil_sch",
            "value": true
          },
          {
            "name": "update_thermostats",
            "value": true
          },
          {
            "name": "autosize_rtu",
            "value": true
          },
          {
            "name": "autosize_terminals",
            "value": true
          },
          {
            "name": "autosize_airloop",
            "value": true
          },
          {
            "name": "setup_non_default_space_types",
            "value": true
          }
        ],
        "step_warnings": []
      }
    },
    {
      "arguments": {
        "__SKIP__": false,
        "remove_unused_constructions": true,
        "remove_unused_load_defs": true,
        "remove_unused_schedules": true,
        "remove_unused_space_types": true
      },
      "description": "Option 1 Description: This is the start of a measure that will have expanded functionality over time. It will have two distinct functions. One will be to remove orphan objects. This will typically include things that should never have been left alone and often are not visible in the GUI. This would include load instances without a space or space type, and surfaces without a space.\n\nA second functionality is to remove unused resources. This will include things like space types, schedules, constructions, and materials. There will be a series of checkboxes to enable/disable this purge. There won't be an option for the orphan objects. They will always be removed.",
      "measure_dir_name": "remove_orphan_objects_and_unused_resources",
      "name": "Remove Unused Objects",
      "result": {
        "completed_at": "20180412T174757Z",
        "measure_class_name": "RemoveOrphanObjectsAndUnusedResources",
        "measure_display_name": "Remove Orphan Objects and Unused Resources",
        "measure_name": "remove_orphan_objects_and_unused_resources",
        "measure_taxonomy": "Whole Building.Space Types",
        "measure_type": "ModelMeasure",
        "measure_uid": "c618f299-a245-49ce-a119-82eb54007ede",
        "measure_version_id": "4b605e61-291a-43bc-bb6e-51d4b1c714ad",
        "measure_version_modified": "20180226T181648Z",
        "measure_xml_checksum": "28AD5222",
        "started_at": "20180412T174757Z",
        "stderr": "",
        "stdout": "",
        "step_errors": [],
        "step_files": [],
        "step_final_condition": "The model finished with 1187 objects.",
        "step_info": [
          "Removing orphan space infiltration object named Infiltration",
          "Removing orphan design specification outdoor air object named ZoneOA Design",
          "Removing orphan design specification outdoor air object named {217e0a64-ac19-48a4-a9d9-c270508d37f1}",
          "Removing orphan design specification outdoor air object named {31e373f7-1fc7-4e7a-9409-e3275600f1ff}",
          "Removing orphan design specification outdoor air object named {3e2e9a44-73f8-407c-9de2-4ad022362ca6}",
          "Removing orphan design specification outdoor air object named {618742b8-3773-4275-90f6-309555518c5e}",
          "Removing orphan design specification outdoor air object named {6fe3c98d-db6e-4ac0-b0c9-53ccdc1b542b}",
          "Removing orphan design specification outdoor air object named {f1d9910e-7dad-474f-976f-c3b9db404034}",
          "Removing orphan design specification outdoor air object named {f217d837-7460-4e06-a2be-62c68057f79f}",
          "Removing orphan design specification outdoor air object named {f4cea124-a6c5-441c-ad2d-bd7a13ec6860}",
          "Removing orphan design specification outdoor air object named {fb20b544-b925-431c-9ee2-63af9b8a1466}",
          "Removing orphan load instance object named 202 Occupant Latent",
          "No orphan base surfaces were found",
          "No orphan sub surfaces were found",
          "No orphan shading surfaces were found",
          "No orphan interior partition surfaces were found",
          "no orphaned LifeCycleCost objects were found",
          "Removed 17 unused space types",
          "Removed 68 unused load definitions",
          "Removed 12 unused default schedules sets",
          "Removed 29 unused schedules",
          "Removed 1 unused default construction sets",
          "Removed 4 unused constructions",
          "Removed 0 unused materials"
        ],
        "step_initial_condition": "The model started with 1459 objects.",
        "step_result": "Success",
        "step_values": [
          {
            "name": "remove_unused_space_types",
            "value": true
          },
          {
            "name": "remove_unused_load_defs",
            "value": true
          },
          {
            "name": "remove_unused_schedules",
            "value": true
          },
          {
            "name": "remove_unused_constructions",
            "value": true
          }
        ],
        "step_warnings": []
      }
    },
    {
      "arguments": {
        "run_period_type": "RunPeriod"
      },
      "description": "Option 1 Description: This is addressing issue with forward translation of OpenStudio Schedule Rulesets to Schedule Week in EnergyPlus. The start day of week for this logic appears to  apply that day of week to January 1st, however when the simulation is runEnergyPlus uses that as the day of the week for the RunPeriod, which for example may be July 25th, not January first. If I just change the start date.",
      "measure_dir_name": "change_run_period_start_day_of_week",
      "name": "Change Start Day of Week",
      "result": {
        "completed_at": "20180412T174802Z",
        "measure_class_name": "ChangeRunPeriodStartDayOfWeek",
        "measure_display_name": "Change RunPeriod Start Day Of Week",
        "measure_name": "change_run_period_start_day_of_week",
        "measure_taxonomy": "Whole Building.Whole Building Schedules",
        "measure_type": "EnergyPlusMeasure",
        "measure_uid": "23862727-2544-4817-b92b-ac901014f545",
        "measure_version_id": "9dcb4e91-add9-4ccb-a436-78f3ca59e0b1",
        "measure_version_modified": "20171025T182354Z",
        "measure_xml_checksum": "9F9F47EF",
        "started_at": "20180412T174802Z",
        "stderr": "",
        "stdout": "[OpenStudio.Measure] <0> OSArgumentVector is deprecated, use OpenStudio::Measure::OSArgumentVector instead.\n",
        "step_errors": [],
        "step_files": [],
        "step_final_condition": "The building finished with 1 run periods.",
        "step_info": [
          " 1/1/2015 is a Thursday",
          "RunPeriod,\n  Run Period 1,                           !- Name\n  1,                                      !- Begin Month\n  1,                                      !- Begin Day of Month\n  12,                                     !- End Month\n  31,                                     !- End Day of Month\n  Thursday,                               !- Day of Week for Start Day\n  No,                                     !- Use Weather File Holidays and Special Days\n  No,                                     !- Use Weather File Daylight Saving Period\n  No,                                     !- Apply Weekend Holiday Rule\n  Yes,                                    !- Use Weather File Rain Indicators\n  Yes,                                    !- Use Weather File Snow Indicators\n  1,                                      !- Number of Times Runperiod to be Repeated\n  ,                                       !- Increment Day of Week on repeat\n  2015;                                   !- Start Year\n\n"
        ],
        "step_initial_condition": "The building started with 1 run periods.",
        "step_result": "Success",
        "step_values": [
          {
            "name": "run_period_type",
            "value": "RunPeriod"
          }
        ],
        "step_warnings": []
      }
    },
    {
      "arguments": {
        "__SKIP__": true,
        "downstream_fraction": 0.119758221206572,
        "upstream_fraction": 0.0121705692534106
      },
      "description": "Simulate supply air duct leakage from VAV into Return Plenum.",
      "measure_dir_name": "duct_leakage_through_zone_hvac_air_distribution_unit",
      "name": "duct_leakage_through_zone_hvac_air_distribution_unit",
      "result": {
        "completed_at": "20180412T174802Z",
        "measure_class_name": "DuctLeakageThroughZoneHVACAirDistributionUnit",
        "measure_display_name": "Duct Leakage through ZoneHVACAirDistributionUnit",
        "measure_name": "duct_leakage_through_zone_hvac_air_distribution_unit",
        "measure_taxonomy": "HVAC.Distribution",
        "measure_type": "EnergyPlusMeasure",
        "measure_uid": "1bd982b9-ff11-4960-a75e-7421a5a08d47",
        "measure_version_id": "9091f946-fca1-4cc0-b6c9-11591fff0d15",
        "measure_version_modified": "20180405T205437Z",
        "measure_xml_checksum": "CE45555F",
        "started_at": "20180412T174802Z",
        "stderr": "",
        "stdout": "",
        "step_errors": [],
        "step_files": [],
        "step_info": [],
        "step_result": "Skip",
        "step_values": [],
        "step_warnings": []
      }
    },
    {
      "arguments": {
        "air_loops_detail_section": true,
        "annual_overview_section": true,
        "building_summary_section": true,
        "cost_summary_section": true,
        "envelope_section_section": true,
        "exterior_light_section": true,
        "hvac_load_profile": true,
        "interior_lighting_section": true,
        "monthly_overview_section": true,
        "outdoor_air_section": true,
        "plant_loops_detail_section": true,
        "plug_loads_section": true,
        "schedules_overview_section": true,
        "source_energy_section": true,
        "space_type_breakdown_section": true,
        "space_type_details_section": true,
        "utility_bills_rates_section": true,
        "water_use_section": true,
        "zone_condition_section": true,
        "zone_equipment_detail_section": true,
        "zone_summary_section": true
      },
      "description": "Option 1 Description: This measure creates high level tables and charts pulling both from model inputs and EnergyPlus results. It has building level information as well as detail on space types, thermal zones, HVAC systems, envelope characteristics, and economics. Click the heading above a chart to view a table of the chart data.",
      "measure_dir_name": "861c42ba-2105-49e6-b727-9fc3567f4834",
      "name": "OpenStudio Results",
      "result": {
        "completed_at": "20180412T174852Z",
        "measure_class_name": "OpenStudioResults",
        "measure_display_name": "OpenStudio Results",
        "measure_name": "openstudio_results",
        "measure_taxonomy": "Reporting.QAQC",
        "measure_type": "ReportingMeasure",
        "measure_uid": "a25386cd-60e4-46bc-8b11-c755f379d916",
        "measure_version_id": "d255d6a3-d97e-47fc-a19d-59051f5fb8c0",
        "measure_version_modified": "20171027T162624Z",
        "measure_xml_checksum": "557BF06F",
        "started_at": "20180412T174843Z",
        "stderr": "",
        "stdout": "[OpenStudio.Measure] <0> OSArgumentVector is deprecated, use OpenStudio::Measure::OSArgumentVector instead.\n",
        "step_errors": [],
        "step_files": [
          "/Users/dgoldwas/Documents/GitHub/NREL/FRP_Models/PAT Projects/PAT_FRP_combined_March_2018/temp_data/analysis_85c68af3-17c3-4ab8-94c9-a6c4129bd632/data_point_36c49424-1c98-4ce6-86ee-7ac7e416abd8/run/015_861c42ba-2105-49e6-b727-9fc3567f4834/report.html"
        ],
        "step_final_condition": "Generated report with 21 sections to ./report.html.",
        "step_info": [],
        "step_initial_condition": "Gathering data from EnergyPlus SQL file and OSM model.",
        "step_result": "Success",
        "step_values": [
          {
            "name": "building_summary_section",
            "value": true
          },
          {
            "name": "annual_overview_section",
            "value": true
          },
          {
            "name": "monthly_overview_section",
            "value": true
          },
          {
            "name": "utility_bills_rates_section",
            "value": true
          },
          {
            "name": "envelope_section_section",
            "value": true
          },
          {
            "name": "space_type_breakdown_section",
            "value": true
          },
          {
            "name": "space_type_details_section",
            "value": true
          },
          {
            "name": "interior_lighting_section",
            "value": true
          },
          {
            "name": "plug_loads_section",
            "value": true
          },
          {
            "name": "exterior_light_section",
            "value": true
          },
          {
            "name": "water_use_section",
            "value": true
          },
          {
            "name": "hvac_load_profile",
            "value": true
          },
          {
            "name": "zone_condition_section",
            "value": true
          },
          {
            "name": "zone_summary_section",
            "value": true
          },
          {
            "name": "zone_equipment_detail_section",
            "value": true
          },
          {
            "name": "air_loops_detail_section",
            "value": true
          },
          {
            "name": "plant_loops_detail_section",
            "value": true
          },
          {
            "name": "outdoor_air_section",
            "value": true
          },
          {
            "name": "cost_summary_section",
            "value": true
          },
          {
            "name": "source_energy_section",
            "value": true
          },
          {
            "name": "schedules_overview_section",
            "value": true
          },
          {
            "display_name": "FRP_RTU",
            "name": "building_name",
            "value": "building_name"
          },
          {
            "name": "net_site_energy",
            "units": "kBtu",
            "value": 210889.3092697131
          },
          {
            "name": "total_building_area",
            "units": "ft^2",
            "value": 3528.517473701614
          },
          {
            "name": "eui",
            "units": "kBtu/ft^2",
            "value": 59.76711489782657
          },
          {
            "name": "unmet_hours_during_heating",
            "units": "hr",
            "value": 450.75
          },
          {
            "name": "unmet_hours_during_cooling",
            "units": "hr",
            "value": 851.5
          },
          {
            "name": "unmet_hours_during_occupied_heating",
            "units": "hr",
            "value": 323
          },
          {
            "name": "unmet_hours_during_occupied_cooling",
            "units": "hr",
            "value": 386
          },
          {
            "name": "unmet_hours_tolerance_heating",
            "units": "F",
            "value": 0.36
          },
          {
            "name": "unmet_hours_tolerance_cooling",
            "units": "F",
            "value": 0.36
          },
          {
            "name": "end_use_heating",
            "units": "kBtu",
            "value": 54584.78795884394
          },
          {
            "name": "end_use_cooling",
            "units": "kBtu",
            "value": 62451.67005744448
          },
          {
            "name": "end_use_interior_lighting",
            "units": "kBtu",
            "value": 31173.705087105005
          },
          {
            "name": "end_use_exterior_lighting",
            "units": "kBtu",
            "value": 0
          },
          {
            "name": "end_use_interior_equipment",
            "units": "kBtu",
            "value": 33884.46205120109
          },
          {
            "name": "end_use_exterior_equipment",
            "units": "kBtu",
            "value": 0
          },
          {
            "name": "end_use_fans",
            "units": "kBtu",
            "value": 28804.162286321713
          },
          {
            "name": "end_use_pumps",
            "units": "kBtu",
            "value": 0
          },
          {
            "name": "end_use_heat_rejection",
            "units": "kBtu",
            "value": 0
          },
          {
            "name": "end_use_humidification",
            "units": "kBtu",
            "value": 0
          },
          {
            "name": "end_use_heat_recovery",
            "units": "kBtu",
            "value": 0
          },
          {
            "name": "end_use_water_systems",
            "units": "kBtu",
            "value": 0
          },
          {
            "name": "end_use_refrigeration",
            "units": "kBtu",
            "value": 0
          },
          {
            "name": "end_use_generators",
            "units": "kBtu",
            "value": 0
          },
          {
            "name": "fuel_electricity",
            "units": "kBtu",
            "value": 202520.0840973465
          },
          {
            "name": "fuel_natural_gas",
            "units": "kBtu",
            "value": 8369.225172366592
          },
          {
            "name": "fuel_additional_fuel",
            "units": "kBtu",
            "value": 0
          },
          {
            "name": "fuel_district_cooling",
            "units": "kBtu",
            "value": 0
          },
          {
            "name": "fuel_district_heating",
            "units": "kBtu",
            "value": 0
          },
          {
            "name": "end_use_electricity_heating",
            "units": "kWh",
            "value": 13544.444444444443
          },
          {
            "name": "end_use_electricity_cooling",
            "units": "kWh",
            "value": 18302.777777777777
          },
          {
            "name": "end_use_electricity_interior_lighting",
            "units": "kWh",
            "value": 9136.111111111111
          },
          {
            "name": "end_use_electricity_exterior_lighting",
            "units": "kWh",
            "value": 0
          },
          {
            "name": "end_use_electricity_interior_equipment",
            "units": "kWh",
            "value": 9930.555555555557
          },
          {
            "name": "end_use_electricity_exterior_equipment",
            "units": "kWh",
            "value": 0
          },
          {
            "name": "end_use_electricity_fans",
            "units": "kWh",
            "value": 8441.666666666666
          },
          {
            "name": "end_use_electricity_pumps",
            "units": "kWh",
            "value": 0
          },
          {
            "name": "end_use_electricity_heat_rejection",
            "units": "kWh",
            "value": 0
          },
          {
            "name": "end_use_electricity_humidification",
            "units": "kWh",
            "value": 0
          },
          {
            "name": "end_use_electricity_heat_recovery",
            "units": "kWh",
            "value": 0
          },
          {
            "name": "end_use_electricity_water_systems",
            "units": "kWh",
            "value": 0
          },
          {
            "name": "end_use_electricity_refrigeration",
            "units": "kWh",
            "value": 0
          },
          {
            "name": "end_use_electricity_generators",
            "units": "kWh",
            "value": 0
          },
          {
            "name": "end_use_natural_gas_heating",
            "units": "therms",
            "value": 83.7084
          },
          {
            "name": "end_use_natural_gas_cooling",
            "units": "therms",
            "value": 0
          },
          {
            "name": "end_use_natural_gas_interior_lighting",
            "units": "therms",
            "value": 0
          },
          {
            "name": "end_use_natural_gas_exterior_lighting",
            "units": "therms",
            "value": 0
          },
          {
            "name": "end_use_natural_gas_interior_equipment",
            "units": "therms",
            "value": 0
          },
          {
            "name": "end_use_natural_gas_exterior_equipment",
            "units": "therms",
            "value": 0
          },
          {
            "name": "end_use_natural_gas_fans",
            "units": "therms",
            "value": 0
          },
          {
            "name": "end_use_natural_gas_pumps",
            "units": "therms",
            "value": 0
          },
          {
            "name": "end_use_natural_gas_heat_rejection",
            "units": "therms",
            "value": 0
          },
          {
            "name": "end_use_natural_gas_humidification",
            "units": "therms",
            "value": 0
          },
          {
            "name": "end_use_natural_gas_heat_recovery",
            "units": "therms",
            "value": 0
          },
          {
            "name": "end_use_natural_gas_water_systems",
            "units": "therms",
            "value": 0
          },
          {
            "name": "end_use_natural_gas_refrigeration",
            "units": "therms",
            "value": 0
          },
          {
            "name": "end_use_natural_gas_generators",
            "units": "therms",
            "value": 0
          },
          {
            "name": "electricity_heating_ip",
            "units": "kWh",
            "value": 13545.011111111113
          },
          {
            "name": "electricity_cooling_ip",
            "units": "kWh",
            "value": 18301.497253491667
          },
          {
            "name": "electricity_interior_lighting_ip",
            "units": "kWh",
            "value": 9136.161111111112
          },
          {
            "name": "electricity_exterior_lighting_ip",
            "units": "kWh",
            "value": 0
          },
          {
            "name": "electricity_interior_equipment_ip",
            "units": "kWh",
            "value": 9929.361111111111
          },
          {
            "name": "electricity_exterior_equipment_ip",
            "units": "kWh",
            "value": 0
          },
          {
            "name": "electricity_fans_ip",
            "units": "kWh",
            "value": 8440.963888888888
          },
          {
            "name": "electricity_pumps_ip",
            "units": "kWh",
            "value": 0
          },
          {
            "name": "electricity_heat_rejection_ip",
            "units": "kWh",
            "value": 0
          },
          {
            "name": "electricity_humidification_ip",
            "units": "kWh",
            "value": 0
          },
          {
            "name": "electricity_heat_recovery_ip",
            "units": "kWh",
            "value": 0
          },
          {
            "name": "electricity_water_systems_ip",
            "units": "kWh",
            "value": 0
          },
          {
            "name": "electricity_refrigeration_ip",
            "units": "kWh",
            "value": 0
          },
          {
            "name": "electricity_generators_ip",
            "units": "kWh",
            "value": 0
          },
          {
            "name": "electricity_ip",
            "units": "kWh",
            "value": 59352.994475713895
          },
          {
            "name": "natural_gas_heating_ip",
            "units": "MBtu",
            "value": 8.366988711344986
          },
          {
            "name": "natural_gas_cooling_ip",
            "units": "MBtu",
            "value": 0
          },
          {
            "name": "natural_gas_interior_lighting_ip",
            "units": "MBtu",
            "value": 0
          },
          {
            "name": "natural_gas_exterior_lighting_ip",
            "units": "MBtu",
            "value": 0
          },
          {
            "name": "natural_gas_interior_equipment_ip",
            "units": "MBtu",
            "value": 0
          },
          {
            "name": "natural_gas_exterior_equipment_ip",
            "units": "MBtu",
            "value": 0
          },
          {
            "name": "natural_gas_fans_ip",
            "units": "MBtu",
            "value": 0
          },
          {
            "name": "natural_gas_pumps_ip",
            "units": "MBtu",
            "value": 0
          },
          {
            "name": "natural_gas_heat_rejection_ip",
            "units": "MBtu",
            "value": 0
          },
          {
            "name": "natural_gas_humidification_ip",
            "units": "MBtu",
            "value": 0
          },
          {
            "name": "natural_gas_heat_recovery_ip",
            "units": "MBtu",
            "value": 0
          },
          {
            "name": "natural_gas_water_systems_ip",
            "units": "MBtu",
            "value": 0
          },
          {
            "name": "natural_gas_refrigeration_ip",
            "units": "MBtu",
            "value": 0
          },
          {
[...]
        "csv_var_dn": "",
        "environment_period": "RUN PERIOD 1",
        "find_avail": true,
        "key_value": "",
        "norm": 1,
        "plot_flag": true,
        "plot_name": "",
        "reporting_frequency": "Timestep",
        "scale": 1,
        "seconds": false,
        "timeseries_name": "Facility Total Electric Demand Power",
        "verbose_messages": false,
        "warning_messages": true,
        "year": true
      },
      "description": "Creates Objective Function from Timeseries Data",
      "measure_dir_name": "TimeseriesObjectiveFunction",
      "name": "rtu_exit",
      "result": {
        "completed_at": "20180412T174853Z",
        "measure_class_name": "TimeseriesObjectiveFunction",
        "measure_display_name": "TimeSeries Objective Function",
        "measure_name": "timeseries_objective_function",
        "measure_taxonomy": "Reporting.QAQC",
        "measure_type": "ReportingMeasure",
        "measure_uid": "6804217d-4737-45f3-82df-b81393c29ce3",
        "measure_version_id": "d41b5fec-0640-4337-965c-e1515b34d80e",
        "measure_version_modified": "20180322T191228Z",
        "measure_xml_checksum": "FFE04372",
        "started_at": "20180412T174853Z",
        "stderr": "",
        "stdout": "",
        "step_errors": [],
        "step_files": [],
        "step_info": [],
        "step_result": "Skip",
        "step_values": [],
        "step_warnings": []
      }
    },
    {
      "arguments": {
        "__SKIP__": true,
        "add_first_zero_for_plots": false,
        "add_last_zero_for_plots": false,
        "algorithm_download": true,
        "convert_data": "None",
        "csv_name": "../../../lib/resources/mtr.csv",
        "csv_time_header": "Date/Time",
        "csv_var": "Whole Building:Facility Total Electric Demand Power [W](TimeStep)",
        "csv_var_dn": "",
        "environment_period": "RUN PERIOD 1",
        "find_avail": true,
        "key_value": "",
        "norm": 1,
        "plot_flag": true,
        "plot_name": "",
        "reporting_frequency": "Timestep",
        "scale": 1,
        "seconds": false,
        "timeseries_name": "Facility Total Electric Demand Power",
        "verbose_messages": false,
        "warning_messages": true,
        "year": true
      },
      "description": "Creates Objective Function from Timeseries Data",
      "measure_dir_name": "TimeseriesObjectiveFunction",
      "name": "rtu_enter",
      "result": {
        "completed_at": "20180412T174853Z",
        "measure_class_name": "TimeseriesObjectiveFunction",
        "measure_display_name": "TimeSeries Objective Function",
        "measure_name": "timeseries_objective_function",
        "measure_taxonomy": "Reporting.QAQC",
        "measure_type": "ReportingMeasure",
        "measure_uid": "6804217d-4737-45f3-82df-b81393c29ce3",
        "measure_version_id": "d41b5fec-0640-4337-965c-e1515b34d80e",
        "measure_version_modified": "20180322T191228Z",
        "measure_xml_checksum": "FFE04372",
        "started_at": "20180412T174853Z",
        "stderr": "",
        "stdout": "",
        "step_errors": [],
        "step_files": [],
        "step_info": [],
        "step_result": "Skip",
        "step_values": [],
        "step_warnings": []
      }
    },
    {
      "arguments": {
        "__SKIP__": true,
        "add_first_zero_for_plots": false,
        "add_last_zero_for_plots": false,
        "algorithm_download": true,
        "convert_data": "None",
        "csv_name": "../../../lib/resources/mtr.csv",
        "csv_time_header": "Date/Time",
        "csv_var": "Whole Building:Facility Total Electric Demand Power [W](TimeStep)",
        "csv_var_dn": "",
        "environment_period": "RUN PERIOD 1",
        "find_avail": true,
        "key_value": "",
        "norm": 1,
        "plot_flag": true,
        "plot_name": "",
        "reporting_frequency": "Timestep",
        "scale": 1,
        "seconds": false,
        "timeseries_name": "Facility Total Electric Demand Power",
        "verbose_messages": false,
        "warning_messages": true,
        "year": true
      },
      "description": "Creates Objective Function from Timeseries Data",
      "measure_dir_name": "TimeseriesObjectiveFunction",
      "name": "cooling_consumption",
      "result": {
        "completed_at": "20180412T174853Z",
        "measure_class_name": "TimeseriesObjectiveFunction",
        "measure_display_name": "TimeSeries Objective Function",
        "measure_name": "timeseries_objective_function",
        "measure_taxonomy": "Reporting.QAQC",
        "measure_type": "ReportingMeasure",
        "measure_uid": "6804217d-4737-45f3-82df-b81393c29ce3",
        "measure_version_id": "d41b5fec-0640-4337-965c-e1515b34d80e",
        "measure_version_modified": "20180322T191228Z",
        "measure_xml_checksum": "FFE04372",
        "started_at": "20180412T174853Z",
        "stderr": "",
        "stdout": "",
        "step_errors": [],
        "step_files": [],
        "step_info": [],
        "step_result": "Skip",
        "step_values": [],
        "step_warnings": []
      }
    },
    {
      "arguments": {
        "__SKIP__": true,
        "add_first_zero_for_plots": false,
        "add_last_zero_for_plots": false,
        "algorithm_download": false,
        "convert_data": "None",
        "csv_name": "../../../lib/resources/mtr.csv",
        "csv_time_header": "Date/Time",
        "csv_var": "Whole Building:Facility Total Electric Demand Power [W](TimeStep)",
        "csv_var_dn": "",
        "environment_period": "RUN PERIOD 1",
        "find_avail": true,
        "key_value": "",
        "norm": 1,
        "plot_flag": true,
        "plot_name": "",
        "reporting_frequency": "Timestep",
        "scale": 1,
        "seconds": false,
        "timeseries_name": "Facility Total Electric Demand Power",
        "verbose_messages": false,
        "warning_messages": true,
        "year": true
      },
      "description": "Creates Objective Function from Timeseries Data",
      "measure_dir_name": "TimeseriesObjectiveFunction",
      "name": "cooling_capacity",
      "result": {
        "completed_at": "20180412T174853Z",
        "measure_class_name": "TimeseriesObjectiveFunction",
        "measure_display_name": "TimeSeries Objective Function",
        "measure_name": "timeseries_objective_function",
        "measure_taxonomy": "Reporting.QAQC",
        "measure_type": "ReportingMeasure",
        "measure_uid": "6804217d-4737-45f3-82df-b81393c29ce3",
        "measure_version_id": "d41b5fec-0640-4337-965c-e1515b34d80e",
        "measure_version_modified": "20180322T191228Z",
        "measure_xml_checksum": "FFE04372",
        "started_at": "20180412T174853Z",
        "stderr": "",
        "stdout": "",
        "step_errors": [],
        "step_files": [],
        "step_info": [],
        "step_result": "Skip",
        "step_values": [],
        "step_warnings": []
      }
    },
    {
      "arguments": {
        "__SKIP__": true,
        "add_first_zero_for_plots": false,
        "add_last_zero_for_plots": false,
        "algorithm_download": false,
        "convert_data": "None",
        "csv_name": "../../../lib/resources/mtr.csv",
        "csv_time_header": "Date/Time",
        "csv_var": "Whole Building:Facility Total Electric Demand Power [W](TimeStep)",
        "csv_var_dn": "",
        "environment_period": "RUN PERIOD 1",
        "find_avail": true,
        "key_value": "",
        "norm": 1,
        "plot_flag": true,
        "plot_name": "",
        "reporting_frequency": "Timestep",
        "scale": 1,
        "seconds": false,
        "timeseries_name": "Facility Total Electric Demand Power",
        "verbose_messages": false,
        "warning_messages": true,
        "year": true
      },
      "description": "Creates Objective Function from Timeseries Data",
      "measure_dir_name": "TimeseriesObjectiveFunction",
      "name": "heating_consumption",
      "result": {
        "completed_at": "20180412T174853Z",
        "measure_class_name": "TimeseriesObjectiveFunction",
        "measure_display_name": "TimeSeries Objective Function",
        "measure_name": "timeseries_objective_function",
        "measure_taxonomy": "Reporting.QAQC",
        "measure_type": "ReportingMeasure",
        "measure_uid": "6804217d-4737-45f3-82df-b81393c29ce3",
        "measure_version_id": "d41b5fec-0640-4337-965c-e1515b34d80e",
        "measure_version_modified": "20180322T191228Z",
        "measure_xml_checksum": "FFE04372",
        "started_at": "20180412T174853Z",
        "stderr": "",
        "stdout": "",
        "step_errors": [],
        "step_files": [],
        "step_info": [],
        "step_result": "Skip",
        "step_values": [],
        "step_warnings": []
      }
    },
    {
      "arguments": {
        "__SKIP__": true,
        "add_first_zero_for_plots": false,
        "add_last_zero_for_plots": false,
        "algorithm_download": true,
        "convert_data": "None",
        "csv_name": "../../../lib/resources/mtr.csv",
        "csv_time_header": "Date/Time",
        "csv_var": "Whole Building:Facility Total Electric Demand Power [W](TimeStep)",
        "csv_var_dn": "",
        "environment_period": "RUN PERIOD 1",
        "find_avail": true,
        "key_value": "",
        "norm": 1,
        "plot_flag": true,
        "plot_name": "",
        "reporting_frequency": "Timestep",
        "scale": 1,
        "seconds": false,
        "timeseries_name": "Facility Total Electric Demand Power",
        "verbose_messages": false,
        "warning_messages": true,
        "year": true
      },
      "description": "Creates Objective Function from Timeseries Data",
      "measure_dir_name": "TimeseriesObjectiveFunction",
      "name": "total_consumption",
      "result": {
        "completed_at": "20180412T174853Z",
        "measure_class_name": "TimeseriesObjectiveFunction",
        "measure_display_name": "TimeSeries Objective Function",
        "measure_name": "timeseries_objective_function",
        "measure_taxonomy": "Reporting.QAQC",
        "measure_type": "ReportingMeasure",
        "measure_uid": "6804217d-4737-45f3-82df-b81393c29ce3",
        "measure_version_id": "d41b5fec-0640-4337-965c-e1515b34d80e",
        "measure_version_modified": "20180322T191228Z",
        "measure_xml_checksum": "FFE04372",
        "started_at": "20180412T174853Z",
        "stderr": "",
        "stdout": "",
        "step_errors": [],
        "step_files": [],
        "step_info": [],
        "step_result": "Skip",
        "step_values": [],
        "step_warnings": []
      }
    },
    {
      "arguments": {
        "__SKIP__": true,
        "add_first_zero_for_plots": false,
        "add_last_zero_for_plots": false,
        "algorithm_download": false,
        "convert_data": "None",
        "csv_name": "../../../lib/resources/mtr.csv",
        "csv_time_header": "Date/Time",
        "csv_var": "Whole Building:Facility Total Electric Demand Power [W](TimeStep)",
        "csv_var_dn": "",
        "environment_period": "RUN PERIOD 1",
        "find_avail": true,
        "key_value": "",
        "norm": 1,
        "plot_flag": true,
        "plot_name": "",
        "reporting_frequency": "Timestep",
        "scale": 1,
        "seconds": false,
        "timeseries_name": "Facility Total Electric Demand Power",
        "verbose_messages": false,
        "warning_messages": true,
        "year": true
      },
      "description": "Creates Objective Function from Timeseries Data",
      "measure_dir_name": "TimeseriesObjectiveFunction",
      "name": "lighting_consumption",
      "result": {
        "completed_at": "20180412T174853Z",
        "measure_class_name": "TimeseriesObjectiveFunction",
        "measure_display_name": "TimeSeries Objective Function",
        "measure_name": "timeseries_objective_function",
        "measure_taxonomy": "Reporting.QAQC",
        "measure_type": "ReportingMeasure",
        "measure_uid": "6804217d-4737-45f3-82df-b81393c29ce3",
        "measure_version_id": "d41b5fec-0640-4337-965c-e1515b34d80e",
        "measure_version_modified": "20180322T191228Z",
        "measure_xml_checksum": "FFE04372",
        "started_at": "20180412T174853Z",
        "stderr": "",
        "stdout": "",
        "step_errors": [],
        "step_files": [],
        "step_info": [],
        "step_result": "Skip",
        "step_values": [],
        "step_warnings": []
      }
    },
    {
      "arguments": {
        "__SKIP__": true,
        "add_first_zero_for_plots": false,
        "add_last_zero_for_plots": false,
        "algorithm_download": true,
        "convert_data": "None",
        "csv_name": "../../../lib/resources/mtr.csv",
        "csv_time_header": "Date/Time",
        "csv_var": "Whole Building:Facility Total Electric Demand Power [W](TimeStep)",
        "csv_var_dn": "",
        "environment_period": "RUN PERIOD 1",
        "find_avail": true,
        "key_value": "",
        "norm": 1,
        "plot_flag": true,
        "plot_name": "",
        "reporting_frequency": "Timestep",
        "scale": 1,
        "seconds": false,
        "timeseries_name": "Facility Total Electric Demand Power",
        "verbose_messages": false,
        "warning_messages": true,
        "year": true
      },
      "description": "Creates Objective Function from Timeseries Data",
      "measure_dir_name": "TimeseriesObjectiveFunction",
      "name": "equipment_consumption",
      "result": {
        "completed_at": "20180412T174853Z",
        "measure_class_name": "TimeseriesObjectiveFunction",
        "measure_display_name": "TimeSeries Objective Function",
        "measure_name": "timeseries_objective_function",
        "measure_taxonomy": "Reporting.QAQC",
        "measure_type": "ReportingMeasure",
        "measure_uid": "6804217d-4737-45f3-82df-b81393c29ce3",
        "measure_version_id": "d41b5fec-0640-4337-965c-e1515b34d80e",
        "measure_version_modified": "20180322T191228Z",
        "measure_xml_checksum": "FFE04372",
        "started_at": "20180412T174853Z",
        "stderr": "",
        "stdout": "",
        "step_errors": [],
        "step_files": [],
        "step_info": [],
        "step_result": "Skip",
        "step_values": [],
        "step_warnings": []
      }
    },
    {
      "arguments": {
        "__SKIP__": true,
        "add_first_zero_for_plots": false,
        "add_last_zero_for_plots": false,
        "algorithm_download": true,
        "convert_data": "None",
        "csv_name": "../../../lib/resources/mtr.csv",
        "csv_time_header": "Date/Time",
        "csv_var": "Whole Building:Facility Total Electric Demand Power [W](TimeStep)",
        "csv_var_dn": "",
        "environment_period": "RUN PERIOD 1",
        "find_avail": true,
        "key_value": "",
        "norm": 1,
        "plot_flag": true,
        "plot_name": "",
        "reporting_frequency": "Timestep",
        "scale": 1,
        "seconds": false,
        "timeseries_name": "Facility Total Electric Demand Power",
        "verbose_messages": false,
        "warning_messages": true,
        "year": true
      },
      "description": "Creates Objective Function from Timeseries Data",
      "measure_dir_name": "TimeseriesObjectiveFunction",
      "name": "fan_consumption",
      "result": {
        "completed_at": "20180412T174853Z",
        "measure_class_name": "TimeseriesObjectiveFunction",
        "measure_display_name": "TimeSeries Objective Function",
        "measure_name": "timeseries_objective_function",
        "measure_taxonomy": "Reporting.QAQC",
        "measure_type": "ReportingMeasure",
        "measure_uid": "6804217d-4737-45f3-82df-b81393c29ce3",
        "measure_version_id": "d41b5fec-0640-4337-965c-e1515b34d80e",
        "measure_version_modified": "20180322T191228Z",
        "measure_xml_checksum": "FFE04372",
        "started_at": "20180412T174853Z",
        "stderr": "",
        "stdout": "",
        "step_errors": [],
        "step_files": [],
        "step_info": [],
        "step_result": "Skip",
        "step_values": [],
        "step_warnings": []
      }
    },
    {
      "arguments": {
        "__SKIP__": true,
        "add_first_zero_for_plots": false,
        "add_last_zero_for_plots": false,
        "algorithm_download": true,
        "convert_data": "None",
        "csv_name": "../../../lib/resources/mtr.csv",
        "csv_time_header": "Date/Time",
        "csv_var": "Whole Building:Facility Total Electric Demand Power [W](TimeStep)",
        "csv_var_dn": "",
        "environment_period": "RUN PERIOD 1",
        "find_avail": true,
        "key_value": "",
        "norm": 1,
        "plot_flag": true,
        "plot_name": "",
        "reporting_frequency": "Timestep",
        "scale": 1,
        "seconds": false,
        "timeseries_name": "Facility Total Electric Demand Power",
        "verbose_messages": false,
        "warning_messages": true,
        "year": true
      },
      "description": "Creates Objective Function from Timeseries Data",
      "measure_dir_name": "TimeseriesObjectiveFunction",
      "name": "standard_airflow_volume",
      "result": {
        "completed_at": "20180412T174853Z",
        "measure_class_name": "TimeseriesObjectiveFunction",
        "measure_display_name": "TimeSeries Objective Function",
        "measure_name": "timeseries_objective_function",
        "measure_taxonomy": "Reporting.QAQC",
        "measure_type": "ReportingMeasure",
        "measure_uid": "6804217d-4737-45f3-82df-b81393c29ce3",
        "measure_version_id": "d41b5fec-0640-4337-965c-e1515b34d80e",
        "measure_version_modified": "20180322T191228Z",
        "measure_xml_checksum": "FFE04372",
        "started_at": "20180412T174853Z",
        "stderr": "",
        "stdout": "",
        "step_errors": [],
        "step_files": [],
        "step_info": [],
        "step_result": "Skip",
        "step_values": [],
        "step_warnings": []
      }
    },
    {
      "arguments": {
        "__SKIP__": true,
        "add_first_zero_for_plots": false,
        "add_last_zero_for_plots": false,
        "algorithm_download": true,
        "convert_data": "None",
        "csv_name": "../../../lib/resources/mtr.csv",
        "csv_time_header": "Date/Time",
        "csv_var": "Whole Building:Facility Total Electric Demand Power [W](TimeStep)",
        "csv_var_dn": "",
        "environment_period": "RUN PERIOD 1",
        "find_avail": true,
        "key_value": "",
        "norm": 1,
        "plot_flag": true,
        "plot_name": "",
        "reporting_frequency": "Timestep",
        "scale": 1,
        "seconds": false,
        "timeseries_name": "Facility Total Electric Demand Power",
        "verbose_messages": false,
        "warning_messages": true,
        "year": true
      },
      "description": "Creates Objective Function from Timeseries Data",
      "measure_dir_name": "TimeseriesObjectiveFunction",
      "name": "outdoor_air_temp",
      "result": {
        "completed_at": "20180412T174853Z",
        "measure_class_name": "TimeseriesObjectiveFunction",
        "measure_display_name": "TimeSeries Objective Function",
        "measure_name": "timeseries_objective_function",
        "measure_taxonomy": "Reporting.QAQC",
        "measure_type": "ReportingMeasure",
        "measure_uid": "6804217d-4737-45f3-82df-b81393c29ce3",
        "measure_version_id": "d41b5fec-0640-4337-965c-e1515b34d80e",
        "measure_version_modified": "20180322T191228Z",
        "measure_xml_checksum": "FFE04372",
        "started_at": "20180412T174853Z",
        "stderr": "",
        "stdout": "",
        "step_errors": [],
        "step_files": [],
        "step_info": [],
        "step_result": "Skip",
        "step_values": [],
        "step_warnings": []
      }
    }
  ],
  "updated_at": "20180412T174901Z",
  "weather_file": "Oak Ridge_AMY_EPW_010116 to 032916_thur.epw"
}