{
  "completed_at": "20180320T065451Z",
  "completed_status": "Success",
  "created_at": "2018-03-20 00:53:21 -0600",
  "current_step": 38,
  "description": "Autogenerated 1",
  "eplusout_err": "Program Version,EnergyPlus, Version 8.8.0-7c3bbe4830, YMD=2018.03.20 00:53,IDD_Version 8.8.0\n   ************* Beginning Zone Sizing Calculations\n   ** Warning ** ProcessScheduleInput: ScheduleTypeLimits=\"CONTROLMODE\", Unit Type=\"CONTROLMODE\" is invalid.\n   ** Warning ** ProcessScheduleInput: ScheduleTypeLimits=\"LINEARPOWERDENSITY\", Unit Type=\"LINEARPOWERDENSITY\" is invalid.\n   ** Warning ** ProcessScheduleInput: ScheduleTypeLimits=\"VOLUMETRICFLOWRATE\", Unit Type=\"VOLUMETRICFLOWRATE\" is invalid.\n   ** Warning ** ProcessScheduleInput: Schedule:Day:Interval=\"HVAC AVAILABILITY SCHEDULE SATURDAY\", Blank Schedule Type Limits Name input -- will not be validated.\n   ** Warning ** ProcessScheduleInput: Schedule:Day:Interval=\"HVAC AVAILABILITY SCHEDULE SUNDAY\", Blank Schedule Type Limits Name input -- will not be validated.\n   ** Warning ** ProcessScheduleInput: Schedule:Day:Interval=\"HVAC AVAILABILITY SCHEDULE WEEKDAY\", Blank Schedule Type Limits Name input -- will not be validated.\n   ** Warning ** ProcessScheduleInput: Schedule:Day:Interval=\"SCHEDULE DAY 1\", , One or more values are not integer as required by Schedule Type Limits Name=ONOFF 1\n   ** Warning ** ProcessScheduleInput: Schedule:Day:Interval=\"SCHEDULE DAY 10\", Blank Schedule Type Limits Name input -- will not be validated.\n   ** Warning ** ProcessScheduleInput: Schedule:Day:Interval=\"SCHEDULE DAY 11\", Blank Schedule Type Limits Name input -- will not be validated.\n   ** Warning ** ProcessScheduleInput: Schedule:Day:Interval=\"SCHEDULE DAY 12\", Blank Schedule Type Limits Name input -- will not be validated.\n   ** Warning ** ProcessScheduleInput: Schedule:Day:Interval=\"SCHEDULE DAY 13\", Blank Schedule Type Limits Name input -- will not be validated.\n   ** Warning ** ProcessScheduleInput: Schedule:Day:Interval=\"SCHEDULE DAY 14\", Blank Schedule Type Limits Name input -- will not be validated.\n   ** Warning ** ProcessScheduleInput: Schedule:Day:Interval=\"SCHEDULE DAY 15\", Blank Schedule Type Limits Name input -- will not be validated.\n   ** Warning ** ProcessScheduleInput: Schedule:Day:Interval=\"SCHEDULE DAY 16\", Blank Schedule Type Limits Name input -- will not be validated.\n   ** Warning ** ProcessScheduleInput: Schedule:Day:Interval=\"SCHEDULE DAY 17\", Blank Schedule Type Limits Name input -- will not be validated.\n   ** Warning ** ProcessScheduleInput: Schedule:Day:Interval=\"SCHEDULE DAY 18\", Blank Schedule Type Limits Name input -- will not be validated.\n   ** Warning ** ProcessScheduleInput: Schedule:Day:Interval=\"SCHEDULE DAY 19\", Blank Schedule Type Limits Name input -- will not be validated.\n   ** Warning ** ProcessScheduleInput: Schedule:Day:Interval=\"SCHEDULE DAY 20\", Blank Schedule Type Limits Name input -- will not be validated.\n   ** Warning ** ProcessScheduleInput: Schedule:Day:Interval=\"SCHEDULE DAY 21\", Blank Schedule Type Limits Name input -- will not be validated.\n   ** Warning ** ProcessScheduleInput: Schedule:Day:Interval=\"SCHEDULE DAY 22\", Blank Schedule Type Limits Name input -- will not be validated.\n   ** Warning ** ProcessScheduleInput: Schedule:Day:Interval=\"SCHEDULE DAY 23\", Blank Schedule Type Limits Name input -- will not be validated.\n   ** Warning ** ProcessScheduleInput: Schedule:Day:Interval=\"SCHEDULE DAY 24\", Blank Schedule Type Limits Name input -- will not be validated.\n   ** Warning ** ProcessScheduleInput: Schedule:Day:Interval=\"SCHEDULE DAY 26\", Blank Schedule Type Limits Name input -- will not be validated.\n   ** Warning ** ProcessScheduleInput: Schedule:Day:Interval=\"SCHEDULE DAY 27\", Blank Schedule Type Limits Name input -- will not be validated.\n   ** Warning ** ProcessScheduleInput: Schedule:Day:Interval=\"SCHEDULE DAY 29\", Blank Schedule Type Limits Name input -- will not be validated.\n   ** Warning ** ProcessScheduleInput: Schedule:Day:Interval=\"SCHEDULE DAY 30\", Blank Schedule Type Limits Name input -- will not be validated.\n   ** Warning ** ProcessScheduleInput: Schedule:Day:Interval=\"SCHEDULE DAY 31\", Blank Schedule Type Limits Name input -- will not be validated.\n   ** Warning ** ProcessScheduleInput: Schedule:Day:Interval=\"SCHEDULE DAY 32\", Blank Schedule Type Limits Name input -- will not be validated.\n   ** Warning ** ProcessScheduleInput: Schedule:Day:Interval=\"SCHEDULE DAY 33\", Blank Schedule Type Limits Name input -- will not be validated.\n   ** Warning ** ProcessScheduleInput: Schedule:Day:Interval=\"SCHEDULE DAY 34\", Blank Schedule Type Limits Name input -- will not be validated.\n   ** Warning ** ProcessScheduleInput: Schedule:Day:Interval=\"SCHEDULE DAY 35\", Blank Schedule Type Limits Name input -- will not be validated.\n   ** Warning ** ProcessScheduleInput: Schedule:Day:Interval=\"SCHEDULE DAY 36\", Blank Schedule Type Limits Name input -- will not be validated.\n   ** Warning ** ProcessScheduleInput: Schedule:Day:Interval=\"SCHEDULE DAY 756\", , One or more values are not integer as required by Schedule Type Limits Name=ONOFF 1\n   ** Warning ** ProcessScheduleInput: Schedule:Day:Interval=\"SCHEDULE DAY 9\", Blank Schedule Type Limits Name input -- will not be validated.\n   ** Warning ** ProcessScheduleInput: Schedule:Year=\"HVAC AVAILABILITY SCHEDULE\", Blank Schedule Type Limits Name input -- will not be validated.\n   ** Warning ** CheckUsedConstructions: There are 19 nominally unused constructions in input.\n   **   ~~~   ** For explicit details on each unused construction, use Output:Diagnostics,DisplayExtraWarnings;\n   ** Warning ** GetSimpleAirModelInputs: ZoneInfiltration:DesignFlowRate=\"ROOM 103 OFFICE OPENOFFICE INFILTRATION\", Design Flow Rate Calculation Method specifies Flow per Exterior Surface Area, but Exterior Surface Area = 0.  0 Infiltration will result.\n   ** Warning ** GetSimpleAirModelInputs: ZoneInfiltration:DesignFlowRate=\"ROOM 202 OFFICE OPENOFFICE INFILTRATION\", Design Flow Rate Calculation Method specifies Flow per Exterior Surface Area, but Exterior Surface Area = 0.  0 Infiltration will result.\n   ************* Beginning System Sizing Calculations\n   ** Warning ** Since Zone Minimum Air Flow Input Method = FIXEDFLOWRATE, input for Constant Minimum Air Flow Fraction will be ignored.\n   **   ~~~   ** Occurs in AirTerminal:SingleDuct:VAV:Reheat = ROOM 102 VAV REHEAT\n   ** Warning ** Since Damper Heating Action = REVERSE, input for Maximum Flow per Zone Floor Area During Reheat will be ignored.\n   **   ~~~   ** Occurs in AirTerminal:SingleDuct:VAV:Reheat = ROOM 102 VAV REHEAT\n   ** Warning ** Since Zone Minimum Air Flow Input Method = FIXEDFLOWRATE, input for Constant Minimum Air Flow Fraction will be ignored.\n   **   ~~~   ** Occurs in AirTerminal:SingleDuct:VAV:Reheat = ROOM 103 VAV REHEAT\n   ** Warning ** Since Damper Heating Action = REVERSE, input for Maximum Flow per Zone Floor Area During Reheat will be ignored.\n   **   ~~~   ** Occurs in AirTerminal:SingleDuct:VAV:Reheat = ROOM 103 VAV REHEAT\n   ** Warning ** Since Zone Minimum Air Flow Input Method = FIXEDFLOWRATE, input for Constant Minimum Air Flow Fraction will be ignored.\n   **   ~~~   ** Occurs in AirTerminal:SingleDuct:VAV:Reheat = ROOM 104 VAV REHEAT\n   ** Warning ** Since Damper Heating Action = REVERSE, input for Maximum Flow per Zone Floor Area During Reheat will be ignored.\n   **   ~~~   ** Occurs in AirTerminal:SingleDuct:VAV:Reheat = ROOM 104 VAV REHEAT\n   ** Warning ** Since Zone Minimum Air Flow Input Method = FIXEDFLOWRATE, input for Constant Minimum Air Flow Fraction will be ignored.\n   **   ~~~   ** Occurs in AirTerminal:SingleDuct:VAV:Reheat = ROOM 105 VAV REHEAT\n   ** Warning ** Since Damper Heating Action = REVERSE, input for Maximum Flow per Zone Floor Area During Reheat will be ignored.\n   **   ~~~   ** Occurs in AirTerminal:SingleDuct:VAV:Reheat = ROOM 105 VAV REHEAT\n   ** Warning ** Since Zone Minimum Air Flow Input Method = FIXEDFLOWRATE, input for Constant Minimum Air Flow Fraction will be ignored.\n   **   ~~~   ** Occurs in AirTerminal:SingleDuct:VAV:Reheat = ROOM 106 VAV REHEAT\n   ** Warning ** Since Damper Heating Action = REVERSE, input for Maximum Flow per Zone Floor Area During Reheat will be ignored.\n   **   ~~~   ** Occurs in AirTerminal:SingleDuct:VAV:Reheat = ROOM 106 VAV REHEAT\n   ** Warning ** Since Zone Minimum Air Flow Input Method = FIXEDFLOWRATE, input for Constant Minimum Air Flow Fraction will be ignored.\n   **   ~~~   ** Occurs in AirTerminal:SingleDuct:VAV:Reheat = ROOM 202 VAV REHEAT\n   ** Warning ** Since Damper Heating Action = REVERSE, input for Maximum Flow per Zone Floor Area During Reheat will be ignored.\n   **   ~~~   ** Occurs in AirTerminal:SingleDuct:VAV:Reheat = ROOM 202 VAV REHEAT\n   ** Warning ** Since Zone Minimum Air Flow Input Method = FIXEDFLOWRATE, input for Constant Minimum Air Flow Fraction will be ignored.\n   **   ~~~   ** Occurs in AirTerminal:SingleDuct:VAV:Reheat = ROOM 203 VAV REHEAT\n   ** Warning ** Since Damper Heating Action = REVERSE, input for Maximum Flow per Zone Floor Area During Reheat will be ignored.\n   **   ~~~   ** Occurs in AirTerminal:SingleDuct:VAV:Reheat = ROOM 203 VAV REHEAT\n   ** Warning ** Since Zone Minimum Air Flow Input Method = FIXEDFLOWRATE, input for Constant Minimum Air Flow Fraction will be ignored.\n   **   ~~~   ** Occurs in AirTerminal:SingleDuct:VAV:Reheat = ROOM 204 VAV REHEAT\n   ** Warning ** Since Damper Heating Action = REVERSE, input for Maximum Flow per Zone Floor Area During Reheat will be ignored.\n   **   ~~~   ** Occurs in AirTerminal:SingleDuct:VAV:Reheat = ROOM 204 VAV REHEAT\n   ** Warning ** Since Zone Minimum Air Flow Input Method = FIXEDFLOWRATE, input for Constant Minimum Air Flow Fraction will be ignored.\n   **   ~~~   ** Occurs in AirTerminal:SingleDuct:VAV:Reheat = ROOM 205 VAV REHEAT\n   ** Warning ** Since Damper Heating Action = REVERSE, input for Maximum Flow per Zone Floor Area During Reheat will be ignored.\n   **   ~~~   ** Occurs in AirTerminal:SingleDuct:VAV:Reheat = ROOM 205 VAV REHEAT\n   ** Warning ** Since Zone Minimum Air Flow Input Method = FIXEDFLOWRATE, input for Constant Minimum Air Flow Fraction will be ignored.\n   **   ~~~   ** Occurs in AirTerminal:SingleDuct:VAV:Reheat = ROOM 206 VAV REHEAT\n   ** Warning ** Since Damper Heating Action = REVERSE, input for Maximum Flow per Zone Floor Area During Reheat will be ignored.\n   **   ~~~   ** Occurs in AirTerminal:SingleDuct:VAV:Reheat = ROOM 206 VAV REHEAT\n   ** Warning ** GetOAControllerInputs: Controller:MechanicalVentilation=\"CONTROLLER MECHANICAL VENTILATION 1\n   **   ~~~   ** Cannot locate a matching DesignSpecification:OutdoorAir object for Zone=\"ROOM 102\".\n   **   ~~~   ** Using default OA of 0.00944 m3/s-person and 0.0 m3/s-m2.\n   ** Severe  ** Controller:MechanicalVentilation=\"CONTROLLER MECHANICAL VENTILATION 1\", Design Specification Outdoor Air Object Name blank\n   **   ~~~   ** For Zone=\"ROOM 102\".\n   **   ~~~   ** This field either needs to be filled in in this object or Sizing:Zone object.\n   **   ~~~   ** For this run, default values for these fields will be used.\n   ** Warning ** Controller:MechanicalVentilation = \"CONTROLLER MECHANICAL VENTILATION 1\", Zone=\"ROOM 102\".\n   **   ~~~   ** No \"PEOPLE\" object has been specified in the idf for this zone, but the ventilation rate is > 0 in this Controller:MechanicalVentilation Object.\n   **   ~~~   ** Check ventilation rate in Controller:MechanicalVentilation object.  Simulation will continue.\n   ** Warning ** GetDXCoils: Coil:Cooling:DX:TwoStageWithHumidityControlMode=\"ROOFTOP COOLING COIL\" curve values\n   **   ~~~   ** ... Total Cooling Capacity Function of Temperature Curve Name = FIELD DATA STAGE 1 CAPFT output is not equal to 1.0 (+ or - 10%) at rated conditions.\n   **   ~~~   ** ... Curve output at rated conditions = 0.636\n   ** Warning ** GetDXCoils: Coil:Cooling:DX:TwoStageWithHumidityControlMode=\"ROOFTOP COOLING COIL\" curve values\n   **   ~~~   ** ... Energy Input Ratio Function of Temperature Curve Name = FIELD DATA STAGE 1 EIRFT output is not equal to 1.0 (+ or - 10%) at rated conditions.\n   **   ~~~   ** ... Curve output at rated conditions = 0.723\n   ** Warning ** GetDXCoils: Coil:Cooling:DX:TwoStageWithHumidityControlMode=\"ROOFTOP COOLING COIL\" curve values\n   **   ~~~   ** ... Energy Input Ratio Function of Temperature Curve Name = FIELD DATA STAGE 1&2 EIRFT output is not equal to 1.0 (+ or - 10%) at rated conditions.\n   **   ~~~   ** ... Curve output at rated conditions = 0.836\n   ** Warning ** Sizing: Coil:Cooling:DX:TwoStageWithHumidityControlMode \"ROOFTOP COOLING COIL\": Rated air volume flow rate per watt of rated total cooling capacity is out of range.\n   **   ~~~   ** Min Rated Vol Flow Per Watt=[4.027E-005], Rated Vol Flow Per Watt=[2.684E-005], Max Rated Vol Flow Per Watt=[6.041E-005]. See Input Output Reference Manual for valid range.\n   **   ~~~   ** for CoilPerformance:DX:Cooling mode: FIELD DATA STAGE 1\n   ** Warning ** For object = COILPERFORMANCE:DX:COOLING, name = \"FIELD DATA STAGE 1\"\n   **   ~~~   ** Calculated outlet air relative humidity greater than 1. The combination of\n   **   ~~~   ** rated air volume flow rate, total cooling capacity and sensible heat ratio yields coil exiting\n   **   ~~~   ** air conditions above the saturation curve. Possible fixes are to reduce the rated total cooling\n   **   ~~~   ** capacity, increase the rated air volume flow rate, or reduce the rated sensible heat ratio for this coil.\n   **   ~~~   ** If autosizing, it is recommended that all three of these values be autosized.\n   **   ~~~   ** ...Inputs used for calculating cooling coil bypass factor.\n   **   ~~~   ** ...Inlet Air Temperature     = 26.67 C\n   **   ~~~   ** ...Outlet Air Temperature    = 4.94 C\n   **   ~~~   ** ...Inlet Air Humidity Ratio  = 1.125000E-002 kgWater/kgDryAir\n   **   ~~~   ** ...Outlet Air Humidity Ratio = 7.297196E-003 kgWater/kgDryAir\n   **   ~~~   ** ...Total Cooling Capacity used in calculation = 43960.66 W\n   **   ~~~   ** ...Air Mass Flow Rate used in calculation     = 1.364821 kg/s\n   **   ~~~   ** ...Air Volume Flow Rate used in calculation   = 1.180000 m3/s\n   **   ~~~   ** ...Air Volume Flow Rate per Watt of Rated Cooling Capacity is also out of bounds at = 2.6842181E-005 m3/s/W\n   **   ~~~   **  During Warmup, Environment=OAK RIDGE ANN CLG 2% CONDNS DB=>MWB, at Simulation time=07/21 00:00 - 00:15\n   **   ~~~   ** CalcCBF: SHR adjusted to achieve valid outlet air properties and the simulation continues.\n   **   ~~~   ** CalcCBF: initial SHR = 0.68700\n   **   ~~~   ** CalcCBF: adjusted SHR = 0.61097\n   ** Warning ** Output:Meter: invalid Key Name=\"HOURLYMETER\" - not found.\n   ** Warning ** Output:Meter: invalid Key Name=\"DISTRICTCOOLING:FACILITY\" - not found.\n   ** Warning ** Output:Meter: invalid Key Name=\"DISTRICTHEATING:FACILITY\" - not found.\n   ** Warning ** Output:Meter:MeterFileOnly requested for \"Electricity:Facility\" (TimeStep), already on \"Output:Meter\". Will report to both eplusout.eso and eplusout.mtr\n   ************* Testing Individual Branch Integrity\n   ************* All Branches passed integrity testing\n   ************* Testing Individual Supply Air Path Integrity\n   ************* All Supply Air Paths passed integrity testing\n   ************* Testing Individual Return Air Path Integrity\n   ************* All Return Air Paths passed integrity testing\n   ************* No node connection errors were found.\n   ************* Beginning Simulation\n   ** Warning ** Processing Monthly Tabular Reports: Variable names not valid for this simulation\n   **   ~~~   ** ...use Output:Diagnostics,DisplayExtraWarnings; to show more details on individual variables.\n   ** Warning ** CalcDoe2DXCoil: Coil:Cooling:DX:TwoStageWithHumidityControlMode=\"ROOFTOP COOLING COIL\" - Air volume flow rate per watt of rated total cooling capacity is out of range at 1.848E-005 m3/s/W.\n   **   ~~~   **  Environment=RUN PERIOD 1, at Simulation time=01/02 12:00 - 12:15\n   **   ~~~   ** Expected range for VolumeFlowPerRatedTotalCapacity=[2.684E-005--6.713E-005]\n   **   ~~~   ** Possible causes include inconsistent air flow rates in system components,\n   **   ~~~   ** or variable air volume [VAV] system using incorrect coil type.\n   ** Warning ** CalcDoe2DXCoil: Coil:Cooling:DX:TwoStageWithHumidityControlMode \"ROOFTOP COOLING COIL\" - Full load outlet air dry-bulb temperature < 2C. This indicates the possibility of coil frost/freeze. Outlet temperature = -15.62 C.\n   **   ~~~   **  ...Occurrence info = RUN PERIOD 1, 01/02 13:00 - 13:15\n   **   ~~~   ** ... Possible reasons for low outlet air dry-bulb temperatures are: This DX coil\n   **   ~~~   **    1) may have a low inlet air dry-bulb temperature. Inlet air temperature = 20.121 C.\n   **   ~~~   **    2) may have a low air flow rate per watt of cooling capacity. Check inputs.\n   **   ~~~   **    3) is used as part of a HX assisted cooling coil which uses a high sensible effectiveness. Check inputs.\n   ** Warning ** CalcDoe2DXCoil: Coil:Cooling:DX:TwoStageWithHumidityControlMode \"ROOFTOP COOLING COIL\" - Air-cooled condenser inlet dry-bulb temperature below 0 C. Outdoor dry-bulb temperature = -1.63\n   **   ~~~   **  ... Occurrence info = RUN PERIOD 1, 02/10 15:30 - 15:45\n   **   ~~~   ** ... Operation at low ambient temperatures may require special performance curves.\n   ** Warning ** The resource referenced by LifeCycleCost:UsePriceEscalation= \"U.S. AVG  COMMERCIAL-ELECTRICITY\" has no energy cost. \n   **   ~~~   ** ... It is likely that the wrong resource is used. The resource should match the meter used in Utility:Tariff.\n   ** Warning ** The resource referenced by LifeCycleCost:UsePriceEscalation= \"U.S. AVG  COMMERCIAL-DISTILLATE OIL\" has no energy cost. \n   **   ~~~   ** ... It is likely that the wrong resource is used. The resource should match the meter used in Utility:Tariff.\n   ** Warning ** The resource referenced by LifeCycleCost:UsePriceEscalation= \"U.S. AVG  COMMERCIAL-RESIDUAL OIL\" has no energy cost. \n   **   ~~~   ** ... It is likely that the wrong resource is used. The resource should match the meter used in Utility:Tariff.\n   ** Warning ** The resource referenced by LifeCycleCost:UsePriceEscalation= \"U.S. AVG  COMMERCIAL-NATURAL GAS\" has no energy cost. \n   **   ~~~   ** ... It is likely that the wrong resource is used. The resource should match the meter used in Utility:Tariff.\n   ** Warning ** The resource referenced by LifeCycleCost:UsePriceEscalation= \"U.S. AVG  COMMERCIAL-COAL\" has no energy cost. \n   **   ~~~   ** ... It is likely that the wrong resource is used. The resource should match the meter used in Utility:Tariff.\n   ************* Simulation Error Summary *************\n   ************* There are 52 unused schedules in input.\n   ************* There are 93 unused week schedules in input.\n   ************* There are 197 unused day schedules in input.\n   ************* Use Output:Diagnostics,DisplayUnusedSchedules; to see them.\n   *************\n   ************* ===== Recurring Error Summary =====\n   ************* The following recurring error messages occurred.\n   *************\n   *************  ** Warning ** CalcDoe2DXCoil: Coil:Cooling:DX:TwoStageWithHumidityControlMode=\"ROOFTOP COOLING COIL\" - Air volume flow rate per watt of rated total cooling capacity is out of range error continues...\n   *************  **   ~~~   **   This error occurred 913758 total times;\n   *************  **   ~~~   **   during Warmup 0 times;\n   *************  **   ~~~   **   during Sizing 0 times.\n   *************  **   ~~~   **   Max=2.683989E-005  Min=1.112906E-005\n   *************\n   *************  ** Warning ** CalcDoe2DXCoil: Coil:Cooling:DX:TwoStageWithHumidityControlMode=\"ROOFTOP COOLING COIL\" - Full load outlet temperature indicates a possibility of frost/freeze error continues. Outlet air temperature statistics follow:\n   *************  **   ~~~   **   This error occurred 21033 total times;\n   *************  **   ~~~   **   during Warmup 0 times;\n   *************  **   ~~~   **   during Sizing 0 times.\n   *************  **   ~~~   **   Max=0.968114  Min=-23.011182\n   *************\n   *************  ** Warning ** CalcDoe2DXCoil: Coil:Cooling:DX:TwoStageWithHumidityControlMode=\"ROOFTOP COOLING COIL\" - Low condenser dry-bulb temperature error continues...\n   *************  **   ~~~   **   This error occurred 7 total times;\n   *************  **   ~~~   **   during Warmup 0 times;\n   *************  **   ~~~   **   during Sizing 0 times.\n   *************  **   ~~~   **   Max=-0.1 [C]  Min=-1.625 [C]\n   *************\n   *************\n   ************* ===== Final Error Summary =====\n   ************* The following error categories occurred.  Consider correcting or noting.\n   ************* Nominally Unused Constructions\n   ************* ..The nominally unused constructions warning is provided to alert you to potential conditions that can cause\n   ************* ..extra time during simulation. Each construction is calculated by the algorithm indicated in the HeatBalanceAlgorithm\n   ************* ..object. You may remove the constructions indicated (when you use the DisplayExtraWarnings option).\n   *************\n   ************* EnergyPlus Warmup Error Summary. During Warmup: 0 Warning; 0 Severe Errors.\n   ************* EnergyPlus Sizing Error Summary. During Sizing: 58 Warning; 0 Severe Errors.\n   ************* EnergyPlus Completed Successfully-- 934873 Warning; 1 Severe Errors; Elapsed Time=00hr 00min 44.33sec\n",
  "file_format_version": "0.0.1",
  "file_paths": [
    "../weather",
    "../seeds",
    "../seed"
  ],
  "hash": "A69CAD96",
  "measure_paths": [
    "../measures"
  ],
  "name": "Annual Generic Schedules and HVAC",
  "osa_id": "9e88dcac-5f5b-4d37-8e84-81571c9fde5e",
  "osd_id": "b7f86f83-5684-4f4f-98a4-dd3dbd486b8a",
  "run_directory": "./run",
  "seed_file": "FRP2_raw_import_updated_ORNL4.osm",
  "started_at": "20180320T065324Z",
  "steps": [
    {
      "arguments": {
        "add_water_tanks": true,
        "dst": false,
        "dx_curves": "Field Data",
        "fan_curves": "Original",
        "fan_eff": 0.9,
        "fan_max_flow": 2.35973721600001,
        "fan_power_at_min": 1.330891789824,
        "fan_pr": 1000,
        "hvac_mode": "Enabled",
        "infil_102ach": 1.5,
        "infil_flow_ext_wall_area": 0.07,
        "infil_redu_day_ff": 0.125,
        "infil_redu_day_weekend": 0.25,
        "infil_redu_night": 0.125,
        "infil_sch_arg": "Always On",
        "int_mass_first_thick_area": 12.5,
        "int_mass_first_thin_area": 50,
        "int_mass_multiplier": 1.5,
        "int_mass_plenum_thick_area": 135,
        "int_mass_plenum_thin_area": 278,
        "int_mass_room_105_thick_area": 52,
        "int_mass_room_105_thin_area": 411,
        "int_mass_room_106_thick_area": 74,
        "int_mass_room_106_thin_area": 915,
        "int_mass_second_thick_area": 12.5,
        "int_mass_second_thin_area": 12.5,
        "int_mass_stair_thick_area": 713,
        "int_mass_stair_thin_area": 16,
        "oa_threshold_for_setpoint_ceiling": 7.7,
        "oa_threshold_for_setpoint_floor": 13.89,
        "setpoint_temp_ceiling": 20,
        "setpoint_temp_floor": 12.78,
        "shgc_multiplier": 0.96,
        "stair_doors_mixing": 0,
        "stp_mgr": "EMS",
        "ufactor_multiplier": 0.51
      },
      "description": "Option 3 Description: This measure will make the ORNL Two Story Flexible Research Platrom OpenStudio Model.",
      "measure_dir_name": "ornl_two_story_frp_model",
      "name": "generic",
      "result": {
        "completed_at": "20180320T065327Z",
        "measure_class_name": "OrnlTwoStoryFrpModel",
        "measure_display_name": "Ornl Two Story Frp Model",
        "measure_name": "ornl_two_story_frp_model",
        "measure_taxonomy": "Whole Building.Whole Building Schedules",
        "measure_type": "ModelMeasure",
        "measure_uid": "67cfe500-ee64-40db-acf7-f04bf999950d",
        "measure_version_id": "33ddeeba-0fee-4b18-b426-33b1bfcb673c",
        "measure_version_modified": "20180319T150759Z",
        "measure_xml_checksum": "55EF43E6",
        "started_at": "20180320T065326Z",
        "stderr": "",
        "stdout": "[OpenStudio.Measure] <0> OSArgumentVector is deprecated, use OpenStudio::Measure::OSArgumentVector instead.\n",
        "step_errors": [],
        "step_files": [],
        "step_final_condition": "The building finished with 1098 objects.",
        "step_info": [
          "/Users/dgoldwas/Documents/GitHub/NREL/FRP_Models/PAT Projects/PAT_FRP_combined_March_2018/temp_data/analysis_9e88dcac-5f5b-4d37-8e84-81571c9fde5e/measures/ornl_two_story_frp_model/resources/FRP2_raw_import_updated_ORNL4.osm was imported with 797 objects.",
          "Setting Calendar Year to 2015.",
          "Reverting Thermal Zone back to original names from IDF file.",
          "Added 4 stories ot the building.",
          "Added 28 ScheduleRuleset objects to the model.",
          "Setting infiltration to 0.07 CFM per ft^2 of exterior wall for 2F Plenum.",
          "Setting infiltration to 1.5 ACH for Room 102.",
          "Setting infiltration to 0.07 CFM per ft^2 of exterior wall for Room 103.",
          "Setting infiltration to 0.07 CFM per ft^2 of exterior wall for Room 201.",
          "Setting infiltration to 0.07 CFM per ft^2 of exterior wall for Room 203.",
          "Setting infiltration to 1.5 ACH for Room 101.",
          "Setting infiltration to 0.07 CFM per ft^2 of exterior wall for Room 202.",
          "Setting infiltration to 0.07 CFM per ft^2 of exterior wall for Room 105.",
          "Setting infiltration to 0.07 CFM per ft^2 of exterior wall for Room 106.",
          "Setting infiltration to 0.07 CFM per ft^2 of exterior wall for 1F Plenum.",
          "Setting infiltration to 0.07 CFM per ft^2 of exterior wall for Room 104.",
          "Setting infiltration to 0.07 CFM per ft^2 of exterior wall for Room 204.",
          "Setting infiltration to 0.07 CFM per ft^2 of exterior wall for Room 205.",
          "Setting infiltration to 0.07 CFM per ft^2 of exterior wall for Room 206.",
          "Adding airloop named RoofTop.",
          "Adjusting nightcycle availability manager.",
          "Configuring System Sizing.",
          "Adding fan named RoofTop Supply Fan",
          "Adding heating coil named RoofTop HeatingCoil.",
          "Adding cooling coil named RoofTop Cooling Coil.",
          "Adding OA system named RooTop OA System.",
          "Adding components to air loop.",
          "Added 10 thermal zones to RoofTop.",
          "Added 2 return air plenums to the model serving 10 zones. 2 occupied zones don't have thermostats.",
          "Updating logic for MakeSetpoint EMS program based on user inputs.",
          "Setting Ground Reflectance.",
          "Setting Ground Temperatures.",
          "Setting Water Main Temperatures.",
          "Setting Sizing Parameters to 1.0 for heating and cooling",
          "Setting Simulation Run Period from 1/1 through 12/31.",
          "Setting typcial internal mass for Building Story 1",
          "Setting typcial internal mass for Building Story 2",
          "Setting typcial internal mass for Building Story 3",
          "Setting typcial internal mass for Building Story 4",
          "Setting custom internal mass for Room 101",
          "Setting custom internal mass for Room 105",
          "Room 105 includes internal mass for 4 x 200 gallon water starage tanks",
          "Setting custom internal mass for Room 106",
          "Setting custom internal mass for Room 201",
          "Setting zone mixing to/from zones with doors to unconditioned stair with value of 0.0 (cfm)."
        ],
        "step_initial_condition": "The building started with 794 objects.",
        "step_result": "Success",
        "step_values": [
          {
            "name": "hvac_mode",
            "value": "Enabled"
          },
          {
            "name": "dx_curves",
            "value": "Field Data"
          },
          {
            "name": "fan_curves",
            "value": "Original"
          },
          {
            "name": "fan_eff",
            "value": 0.9
          },
          {
            "name": "fan_pr",
            "value": 1000
          },
          {
            "name": "fan_max_flow",
            "value": 2.35973721600001
          },
          {
            "name": "fan_power_at_min",
            "value": 1.330891789824
          },
          {
            "name": "dst",
            "value": false
          },
          {
            "name": "setpoint_temp_floor",
            "value": 12.78
          },
          {
            "name": "oa_threshold_for_setpoint_floor",
            "value": 13.89
          },
          {
            "name": "setpoint_temp_ceiling",
            "value": 20
          },
          {
            "name": "oa_threshold_for_setpoint_ceiling",
            "value": 7.7
          },
          {
            "name": "stp_mgr",
            "value": "EMS"
          },
          {
            "name": "infil_sch_arg",
            "value": "Always On"
          },
          {
            "name": "infil_redu_day_weekend",
            "value": 0.25
          },
          {
            "name": "infil_redu_day_ff",
            "value": 0.125
          },
          {
            "name": "infil_redu_night",
            "value": 0.125
          },
          {
            "name": "infil_flow_ext_wall_area",
            "value": 0.07
          },
          {
            "name": "infil_102ach",
            "value": 1.5
          },
          {
            "name": "stair_doors_mixing",
            "value": 0
          },
          {
            "name": "int_mass_first_thin_area",
            "value": 50
          },
          {
            "name": "int_mass_first_thick_area",
            "value": 12.5
          },
          {
            "name": "int_mass_second_thin_area",
            "value": 12.5
          },
          {
            "name": "int_mass_second_thick_area",
            "value": 12.5
          },
          {
            "name": "int_mass_plenum_thin_area",
            "value": 278
          },
          {
            "name": "int_mass_plenum_thick_area",
            "value": 135
          },
          {
            "name": "int_mass_stair_thin_area",
            "value": 16
          },
          {
            "name": "int_mass_stair_thick_area",
            "value": 713
          },
          {
            "name": "int_mass_room_105_thin_area",
            "value": 411
          },
          {
            "name": "int_mass_room_105_thick_area",
            "value": 52
          },
          {
            "name": "int_mass_room_106_thin_area",
            "value": 915
          },
          {
            "name": "int_mass_room_106_thick_area",
            "value": 74
          },
          {
            "name": "int_mass_multiplier",
            "value": 1.5
          },
          {
            "name": "add_water_tanks",
            "value": true
          },
          {
            "name": "shgc_multiplier",
            "value": 0.96
          },
          {
            "name": "ufactor_multiplier",
            "value": 0.51
          }
        ],
        "step_warnings": []
      }
    },
    {
      "arguments": {
        "__SKIP__": true,
        "csv_name": "../../../lib/resources/mtr.csv"
      },
      "description": "For calibration to measured data update selected loads and load schedules to match measured data for specific dates",
      "measure_dir_name": "update_rfp_loads_and_schedules_from_measured_data",
      "name": "update_rfp_loads_and_schedules_from_measured_data",
      "result": {
        "completed_at": "20180320T065327Z",
        "measure_class_name": "UpdateRFPLoadsAndSchedulesFromMeasuredData",
        "measure_display_name": "Update RFP Loads and Schedules from Measured Data",
        "measure_name": "update_rfp_loads_and_schedules_from_measured_data",
        "measure_taxonomy": "Envelope.Form",
        "measure_type": "ModelMeasure",
        "measure_uid": "e53d2697-1e13-4969-8ff2-a444e53d6202",
        "measure_version_id": "bf8789cd-552d-43bf-ae4d-f2029faba4ff",
        "measure_version_modified": "20180319T203512Z",
        "measure_xml_checksum": "9DE29E21",
        "started_at": "20180320T065327Z",
        "stderr": "",
        "stdout": "",
        "step_errors": [],
        "step_files": [],
        "step_info": [],
        "step_result": "Skip",
        "step_values": [],
        "step_warnings": []
      }
    },
    {
      "arguments": {
        "add_zone_mixing_variables": false,
        "zone_mixing_coef": 2.78
      },
      "description": "Option 1 Description: This measure replaces conductive heat transfer with zone mixing wherever air walls are used on matched surfaces or sub-surfaces for walls. A user argument is exposed for a coefficient that represents a target air changes per hour (ACH) for a room where the zone volume/the air wall surface area is the same as its zone height. As the room gets deeper the additional airflow per unit of depth decreases. If two zones have different mixing estimates, the lower will be used. If a smaller portion of an inter-zone wall is an air wall, that will also decrease zone mixing airflow.\n\nA construction will be hard assigned to the matched surfaces using the air wall, and the then boundary condition will be changed to adiabatic. This will avoid including both air mixing and conductive transfer across zones. Zone mixing objects will also be made for sub-surface air walls, but they can't be made adiabatic unless their base surface also is. A warning will be issued if that happens",
      "measure_dir_name": "air_wall_zone_mixing",
      "name": "NoRtu Air Wall",
      "result": {
        "completed_at": "20180320T065327Z",
        "measure_class_name": "AirWallZoneMixing",
        "measure_display_name": "Air Wall Zone Mixing",
        "measure_name": "air_wall_zone_mixing",
        "measure_taxonomy": "HVAC.Distribution",
        "measure_type": "ModelMeasure",
        "measure_uid": "fd04f73e-a530-4144-9e1e-c1878b1394bc",
        "measure_version_id": "52a85fce-6338-4882-a885-61782e113072",
        "measure_version_modified": "20180226T184750Z",
        "measure_xml_checksum": "772B7164",
        "started_at": "20180320T065327Z",
        "stderr": "",
        "stdout": "",
        "step_errors": [],
        "step_files": [],
        "step_final_condition": "The building finished with 20 Zone Mixing Objects.",
        "step_info": [
          "Add zone mixing between Room 102 and Room 103 with flowrate of 19.88 cfm",
          "Add zone mixing between Room 103 and Room 105 with flowrate of 23.77 cfm",
          "Add zone mixing between Room 103 and Room 104 with flowrate of 23.77 cfm",
          "Add zone mixing between Room 103 and Room 106 with flowrate of 23.77 cfm",
          "Add zone mixing between Room 202 and Room 203 with flowrate of 12.1 cfm",
          "Add zone mixing between Room 202 and Room 205 with flowrate of 26.03 cfm",
          "Add zone mixing between Room 202 and Room 204 with flowrate of 26.03 cfm",
          "Add zone mixing between Room 202 and Room 206 with flowrate of 26.03 cfm"
        ],
        "step_initial_condition": "The building started with 4 Zone Mixing Objects.",
        "step_result": "Success",
        "step_values": [
          {
            "name": "zone_mixing_coef",
            "value": 2.78
          },
          {
            "name": "add_zone_mixing_variables",
            "value": false
          }
        ],
        "step_warnings": [
          "Sub-surfaces shared with Room 102 and Room 103 can't be made adiabatic. Conductive heat transfer will remain in the model for these sub-surfaces.",
          "Sub-surfaces shared with Room 103 and Room 105 can't be made adiabatic. Conductive heat transfer will remain in the model for these sub-surfaces.",
          "Sub-surfaces shared with Room 103 and Room 104 can't be made adiabatic. Conductive heat transfer will remain in the model for these sub-surfaces.",
          "Sub-surfaces shared with Room 103 and Room 106 can't be made adiabatic. Conductive heat transfer will remain in the model for these sub-surfaces.",
          "Sub-surfaces shared with Room 202 and Room 203 can't be made adiabatic. Conductive heat transfer will remain in the model for these sub-surfaces.",
          "Sub-surfaces shared with Room 202 and Room 205 can't be made adiabatic. Conductive heat transfer will remain in the model for these sub-surfaces.",
          "Sub-surfaces shared with Room 202 and Room 204 can't be made adiabatic. Conductive heat transfer will remain in the model for these sub-surfaces.",
          "Sub-surfaces shared with Room 202 and Room 206 can't be made adiabatic. Conductive heat transfer will remain in the model for these sub-surfaces."
        ]
      }
    },
    {
      "arguments": {
        "construction": "2FRP_Roof",
        "r_value": 22.1
      },
      "description": "Option 1 Description: This measure will allow you to alter the r value and mass of existing opaque layered constructions in your model",
      "measure_dir_name": "alter_construction_properties",
      "name": "NoRtu Roof",
      "result": {
        "completed_at": "20180320T065327Z",
        "measure_class_name": "AlterConstructionProperties",
        "measure_display_name": "Alter Construction Properties",
        "measure_name": "alter_construction_properties",
        "measure_taxonomy": "Envelope.Opaque",
        "measure_type": "ModelMeasure",
        "measure_uid": "db91f125-e5e0-492a-8284-e407fb3c3c85",
        "measure_version_id": "3005ac43-3929-433f-95d5-12b5ba34e5db",
        "measure_version_modified": "20180306T163656Z",
        "measure_xml_checksum": "2609226D",
        "started_at": "20180320T065327Z",
        "stderr": "",
        "stdout": "",
        "step_errors": [],
        "step_files": [],
        "step_final_condition": "2FRP_Roof adj exterior wall insulation started with an R-value of 23.2721 ft^2*h*R/Btu.",
        "step_info": [
          "For construction'2FRP_Roof adj exterior wall insulation', material'Roof Insulation_R-value 22.1% increase' was altered."
        ],
        "step_initial_condition": "2FRP_Roof started with an R-value of 19.2916 ft^2*h*R/Btu.",
        "step_result": "Success",
        "step_values": [
          {
            "name": "construction",
            "value": "{e33bf188-2037-4ef0-8efb-a6da15b57013}"
          },
          {
            "name": "r_value",
            "value": 22.1
          }
        ],
        "step_warnings": []
      }
    },
    {
      "arguments": {
        "construction": "2FRP_Ext_Wall",
        "r_value": -18.8
      },
      "description": "Option 1 Description: This measure will allow you to alter the r value and mass of existing opaque layered constructions in your model",
      "measure_dir_name": "alter_construction_properties",
      "name": "NoRtu Ext Wall",
      "result": {
        "completed_at": "20180320T065328Z",
        "measure_class_name": "AlterConstructionProperties",
        "measure_display_name": "Alter Construction Properties",
        "measure_name": "alter_construction_properties",
        "measure_taxonomy": "Envelope.Opaque",
        "measure_type": "ModelMeasure",
        "measure_uid": "db91f125-e5e0-492a-8284-e407fb3c3c85",
        "measure_version_id": "3005ac43-3929-433f-95d5-12b5ba34e5db",
        "measure_version_modified": "20180306T163656Z",
        "measure_xml_checksum": "2609226D",
        "started_at": "20180320T065327Z",
        "stderr": "",
        "stdout": "",
        "step_errors": [],
        "step_files": [],
        "step_final_condition": "2FRP_Ext_Wall adj exterior wall insulation started with an R-value of 7.99629 ft^2*h*R/Btu.",
        "step_info": [
          "For construction'2FRP_Ext_Wall adj exterior wall insulation', material'ExtWall_R11_Insulation_R-value -18.8% increase' was altered."
        ],
        "step_initial_condition": "2FRP_Ext_Wall started with an R-value of 9.21505 ft^2*h*R/Btu.",
        "step_result": "Success",
        "step_values": [
          {
            "name": "construction",
            "value": "{2bc70002-b433-4974-affa-da512c2df929}"
          },
          {
            "name": "r_value",
            "value": -18.8
          }
        ],
        "step_warnings": []
      }
    },
    {
      "arguments": {
        "construction": "Rigid Foam Board In.",
        "r_value": -17.9
      },
      "description": "Option 1 Description: This measure will allow you to alter the r value and mass of existing opaque layered constructions in your model",
      "measure_dir_name": "alter_construction_properties",
      "name": "NoRtu Wall Rigid",
      "result": {
        "completed_at": "20180320T065328Z",
        "measure_class_name": "AlterConstructionProperties",
        "measure_display_name": "Alter Construction Properties",
        "measure_name": "alter_construction_properties",
        "measure_taxonomy": "Envelope.Opaque",
        "measure_type": "ModelMeasure",
        "measure_uid": "db91f125-e5e0-492a-8284-e407fb3c3c85",
        "measure_version_id": "3005ac43-3929-433f-95d5-12b5ba34e5db",
        "measure_version_modified": "20180306T163656Z",
        "measure_xml_checksum": "2609226D",
        "started_at": "20180320T065328Z",
        "stderr": "",
        "stdout": "",
        "step_errors": [],
        "step_files": [],
        "step_final_condition": "Rigid Foam Board In. adj exterior wall insulation started with an R-value of 18.8695 ft^2*h*R/Btu.",
        "step_info": [
          "For construction'Rigid Foam Board In. adj exterior wall insulation', material'2\" Polyisorigid Foam Board_R-value -17.9% increase' was altered."
        ],
        "step_initial_condition": "Rigid Foam Board In. started with an R-value of 20.8516 ft^2*h*R/Btu.",
        "step_result": "Success",
        "step_values": [
          {
            "name": "construction",
            "value": "{61da5983-9cfc-4d58-9128-8592fd02e7eb}"
          },
          {
            "name": "r_value",
            "value": -17.9
          }
        ],
        "step_warnings": []
      }
    },
    {
      "arguments": {
        "construction": "Hybrid Spray Foam In.",
        "r_value": 12.6
      },
      "description": "This measure will allow you to alter the r value and mass of existing opaque layered constructions in your model",
      "measure_dir_name": "alter_construction_properties",
      "name": "NoRtu Foam",
      "result": {
        "completed_at": "20180320T065328Z",
        "measure_class_name": "AlterConstructionProperties",
        "measure_display_name": "Alter Construction Properties",
        "measure_name": "alter_construction_properties",
        "measure_taxonomy": "Envelope.Opaque",
        "measure_type": "ModelMeasure",
        "measure_uid": "db91f125-e5e0-492a-8284-e407fb3c3c85",
        "measure_version_id": "3005ac43-3929-433f-95d5-12b5ba34e5db",
        "measure_version_modified": "20180306T163656Z",
        "measure_xml_checksum": "2609226D",
        "started_at": "20180320T065328Z",
        "stderr": "",
        "stdout": "",
        "step_errors": [],
        "step_files": [],
        "step_final_condition": "Hybrid Spray Foam In. adj exterior wall insulation started with an R-value of 23.4611 ft^2*h*R/Btu.",
        "step_info": [
          "For construction'Hybrid Spray Foam In. adj exterior wall insulation', material'C.C. Spray Foam_R-value 12.6% increase' was altered."
        ],
        "step_initial_condition": "Hybrid Spray Foam In. started with an R-value of 21.2557 ft^2*h*R/Btu.",
        "step_result": "Success",
        "step_values": [
          {
            "name": "construction",
            "value": "{68cb778e-18b9-44e8-80fb-a6fbff811f3c}"
          },
          {
            "name": "r_value",
            "value": 12.6
          }
        ],
        "step_warnings": []
      }
    },
    {
      "arguments": {
        "construction": "INT_WALL",
        "r_value": -26
      },
      "description": "Option 1 Description: This measure will allow you to alter the r value and mass of existing opaque layered constructions in your model",
      "measure_dir_name": "alter_construction_properties",
      "name": "NoRtu Wall Int",
      "result": {
        "completed_at": "20180320T065328Z",
        "measure_class_name": "AlterConstructionProperties",
        "measure_display_name": "Alter Construction Properties",
        "measure_name": "alter_construction_properties",
        "measure_taxonomy": "Envelope.Opaque",
        "measure_type": "ModelMeasure",
        "measure_uid": "db91f125-e5e0-492a-8284-e407fb3c3c85",
        "measure_version_id": "3005ac43-3929-433f-95d5-12b5ba34e5db",
        "measure_version_modified": "20180306T163656Z",
        "measure_xml_checksum": "2609226D",
        "started_at": "20180320T065328Z",
        "stderr": "",
        "stdout": "",
        "step_errors": [],
        "step_files": [],
        "step_final_condition": "INT_WALL started with an R-value of 0.901424 ft^2*h*R/Btu.",
        "step_info": [],
        "step_initial_condition": "INT_WALL started with an R-value of 0.901424 ft^2*h*R/Btu.",
        "step_result": "Success",
        "step_values": [
          {
            "name": "construction",
            "value": "{fed622dc-87b6-42cd-afeb-209dd2b17d6c}"
          },
          {
            "name": "r_value",
            "value": -26
          }
        ],
        "step_warnings": [
          "Construction 'INT_WALL' does not appear to have an insulation layer and was not altered."
        ]
      }
    },
    {
      "arguments": {
        "construction": "Ground_Floor",
        "r_value": 77.7
      },
      "description": "Option 1 Description: This measure will allow you to alter the r value and mass of existing opaque layered constructions in your model",
      "measure_dir_name": "alter_construction_properties",
      "name": "NoRtu Slab",
      "result": {
        "completed_at": "20180320T065329Z",
        "measure_class_name": "AlterConstructionProperties",
        "measure_display_name": "Alter Construction Properties",
        "measure_name": "alter_construction_properties",
        "measure_taxonomy": "Envelope.Opaque",
        "measure_type": "ModelMeasure",
        "measure_uid": "db91f125-e5e0-492a-8284-e407fb3c3c85",
        "measure_version_id": "3005ac43-3929-433f-95d5-12b5ba34e5db",
        "measure_version_modified": "20180306T163656Z",
        "measure_xml_checksum": "2609226D",
        "started_at": "20180320T065328Z",
        "stderr": "",
        "stdout": "",
        "step_errors": [],
        "step_files": [],
        "step_final_condition": "Ground_Floor adj exterior wall insulation started with an R-value of 94.8246 ft^2*h*R/Btu.",
        "step_info": [
          "For construction'Ground_Floor adj exterior wall insulation', material'GeoFoam_R-value 77.7% increase' was altered."
        ],
        "step_initial_condition": "Ground_Floor started with an R-value of 54.0737 ft^2*h*R/Btu.",
        "step_result": "Success",
        "step_values": [
          {
            "name": "construction",
            "value": "{4dde3fd8-0cd3-4942-9834-19d058ef9443}"
          },
          {
            "name": "r_value",
            "value": 77.7
          }
        ],
        "step_warnings": []
      }
    },
    {
      "arguments": {
        "alter_design_days": false,
        "cooling_adjustment": 0,
        "heating_adjustment": 0
      },
      "description": "Option 1 Description: This measure adjusts heating and cooling setpoints by a user specified number of degrees. This is applied throughout the entire building.",
      "measure_dir_name": "AdjustThermostatSetpointsByDegrees",
      "name": "Adjust Thermostat",
      "result": {
        "completed_at": "20180320T065329Z",
        "measure_class_name": "AdjustThermostatSetpointsByDegrees",
        "measure_display_name": "Adjust Thermostat Setpoints by Degrees",
        "measure_name": "adjust_thermostat_setpoints_by_degrees",
        "measure_taxonomy": "HVAC.HVAC Controls",
        "measure_type": "ModelMeasure",
        "measure_uid": "6e1f34f9-92e1-44ea-9279-de0b9b64f6a1",
        "measure_version_id": "b827cbe2-a870-4bba-b518-f9629bd1fd66",
        "measure_version_modified": "20180228T053359Z",
        "measure_xml_checksum": "4F7846F2",
        "started_at": "20180320T065329Z",
        "stderr": "",
        "stdout": "",
        "step_errors": [],
        "step_files": [],
        "step_final_condition": "Final cooling setpoints used in the model range from 75.02 F to 90.86 F. Final heating setpoints used in the model range from 59 F to 82.4 F.",
        "step_info": [],
        "step_initial_condition": "Initial cooling setpoints used in the model range from 75.02 F to 90.86 F. Initial heating setpoints used in the model range from 59 F to 82.4 F.",
        "step_result": "Success",
        "step_values": [
          {
            "name": "cooling_adjustment",
            "value": 0
          },
          {
            "name": "heating_adjustment",
            "value": 0
          },
          {
            "name": "alter_design_days",
            "value": false
          }
        ],
        "step_warnings": []
      }
    },
    {
      "arguments": {
        "__SKIP__": false
      },
      "description": "Option 1 Description: This will removed all internal loads assigned directly to spaces. This can be useful if your model started as an IDF, and now you want to assign space types.",
      "measure_dir_name": "RemoveInternalLoadsDirectlyAssignedToSpaces",
      "name": "Remove Space Loads",
      "result": {
        "completed_at": "20180320T065329Z",
        "measure_class_name": "RemoveInternalLoadsDirectlyAssignedToSpaces",
        "measure_display_name": "RemoveInternalLoadsDirectlyAssignedToSpaces",
        "measure_name": "remove_internal_loads_directly_assigned_to_spaces",
        "measure_taxonomy": "Whole Building.Space Types",
        "measure_type": "ModelMeasure",
        "measure_uid": "019999e0-3e0c-4a77-abbf-a3352de12384",
        "measure_version_id": "651f32d8-103f-4b3c-8978-f84604e2de65",
        "measure_version_modified": "20180226T181648Z",
        "measure_xml_checksum": "057E8D9D",
        "started_at": "20180320T065329Z",
        "stderr": "",
        "stdout": "",
        "step_errors": [],
        "step_files": [],
        "step_final_condition": "The building finished with 1 space load instances.",
        "step_info": [],
        "step_initial_condition": "The building started with 61 space load instances.",
        "step_result": "Success",
        "step_values": [],
        "step_warnings": []
      }
    },
    {
      "arguments": {
        "__SKIP__": false,
        "building_type": "MediumOffice",
        "climate_zone": "ASHRAE 169-2006-5A",
        "create_construction_set": true,
        "create_space_types": true,
        "set_building_defaults": true,
        "template": "90.1-2010"
      },
      "description": "Option 1 Description: Create space types and or construction sets for the requested building type, climate zone, and target.",
      "measure_dir_name": "SpaceTypeAndConstructionSetWizard",
      "name": "Space type and Const Set Wizard",
      "result": {
        "completed_at": "20180320T065330Z",
        "measure_class_name": "SpaceTypeAndConstructionSetWizard",
        "measure_display_name": "Space Type and Construction Set Wizard",
        "measure_name": "space_type_and_construction_set_wizard",
        "measure_taxonomy": "Whole Building.Space Types",
        "measure_type": "ModelMeasure",
        "measure_uid": "7c65af63-4316-47c9-b7a5-68d7a019e533",
        "measure_version_id": "fab31378-cdc5-4e17-b24f-d78a244e67c6",
        "measure_version_modified": "20180226T181651Z",
        "measure_xml_checksum": "057E8D9D",
        "started_at": "20180320T065329Z",
        "stderr": "",
        "stdout": "",
        "step_errors": [],
        "step_files": [],
        "step_final_condition": "The building finished with 18 space types and 2 construction sets.",
        "step_info": [
          "Added space type named Office BreakRoom - 90.1-2010",
          "Added space type named Office ClosedOffice - 90.1-2010",
          "Added space type named Office Conference - 90.1-2010",
          "Added space type named Office Corridor - 90.1-2010",
          "Added space type named Office Elec/MechRoom - 90.1-2010",
          "Added space type named Office IT_Room - 90.1-2010",
          "Added space type named Office Lobby - 90.1-2010",
          "Added space type named Office OpenOffice - 90.1-2010",
          "Added space type named Office PrintRoom - 90.1-2010",
          "Added space type named Office Restroom - 90.1-2010",
          "Added space type named Office Stair - 90.1-2010",
          "Added space type named Office Storage - 90.1-2010",
          "Added space type named Office Vending - 90.1-2010",
          "Added space type named Office WholeBuilding - Md Office - 90.1-2010",
          "Added default construction set named 90.1-2010 - Office - ASHRAE 169-2006-5A",
          "Setting default Space Type for building to Office OpenOffice - 90.1-2010",
          "Setting default Construction Set for building to 90.1-2010 - Office - ASHRAE 169-2006-5A",
          "Setting ASHRAE Climate Zone to 5A",
          "Setting Standards Building Type to Office"
        ],
        "step_initial_condition": "The building started with 4 space types and 1 construction sets.",
        "step_result": "Success",
        "step_values": [
          {
            "name": "building_type",
            "value": "MediumOffice"
          },
          {
            "name": "template",
            "value": "90.1-2010"
          },
          {
            "name": "climate_zone",
            "value": "ASHRAE 169-2006-5A"
          },
          {
            "name": "create_space_types",
            "value": true
          },
          {
            "name": "create_construction_set",
            "value": true
          },
          {
            "name": "set_building_defaults",
            "value": true
          }
        ],
        "step_warnings": []
      }
    },
    {
      "arguments": {
        "__SKIP__": false,
        "autosize_airloop": true,
        "autosize_rtu": true,
        "autosize_terminals": true,
        "condition_stairs": true,
        "enable_furnace": true,
        "enable_rtu_oa": true,
        "setup_non_default_space_types": true,
        "update_availability": true,
        "update_deck_temp_ctrl": true,
        "update_infil_sch": true,
        "update_thermostats": true
      },
      "description": "Option 1 Description: This will add OA, update infiltration schedule, enable furnace, update thermostat, and make changes to terminals. It may also autosize some or all elements",
      "measure_dir_name": "update_frp_hvac_to_be_generic",
      "name": "FRP Update HVAC",
      "result": {
        "completed_at": "20180320T065330Z",
        "measure_class_name": "FrpUpdateHvacToBeGeneric",
        "measure_display_name": "FRP Update HVAC to be Generic",
        "measure_name": "frp_update_hvac_to_be_generic",
        "measure_taxonomy": "HVAC.Whole System",
        "measure_type": "ModelMeasure",
        "measure_uid": "87b6c2a3-f23b-4fe0-8206-36c0462352a4",
        "measure_version_id": "905113b0-eeeb-41c9-8804-ec7fbf157b68",
        "measure_version_modified": "20180320T063906Z",
        "measure_xml_checksum": "ED6112BA",
        "started_at": "20180320T065330Z",
        "stderr": "",
        "stdout": "",
        "step_errors": [],
        "step_files": [],
        "step_final_condition": "The building finished with 1448 objects.",
        "step_info": [
          "Enabling outdoor air for the RTU",
          " - autosizing min and max air flow rate for controller outdoor air.",
          "Enable RTU furnace",
          " - Changing gas heating coil availability schedule from Always Off Discrete to Always On Discrete.",
          "Update Availability schedules to reflect typical office",
          " - Setting availability schedule for RoofTop to HVAC Availability Schedule",
          " - Times and values for HVAC Availability Schedule default profile are [6,0.0],[22,1.0],[0,0.0]",
          "Update Infiltraiton schedule to relflect daytime positive pressure",
          " - Setting infiltration schedule for 15 SpaceInfiltrationDesignFlowRate objects.",
          " - Times and values for Infiltration Schedule default profile are [6,1.0],[22,0.25],[0,1.0]",
          "Update Thermostat schedules to reflect typical office",
          " - Setting heating setopint schedule for 24 ThermostatSetpointDualSetpoint objects.",
          " - Times and values for Htg Setpoint Schedule default profile are [6,15.6],[22,21.0],[0,15.6]",
          " - Setting cooling setopint schedule for 24 ThermostatSetpointDualSetpoint objects.",
          " - Times and values for Clg Setpoint Schedule default profile are [6,26.7],[22,24.0],[0,26.7]",
          "todo - Condition Stairs",
          "todo - Update Deck temperature to reflect OA and furance",
          "todo - Autosize RTU components",
          "todo - Autosize Terminal components",
          "todo - Autosize other Air Loop components",
          "todo - Remove hard assigned space loads",
          " - Assigning Office Stair - 90.1-2010 space type to Room 101",
          " - Assigning Office Stair - 90.1-2010 space type to Room 201",
          " - Assigning FRP Plenum space type to 2F Plenum",
          " - Assigning FRP Plenum space type to 1F Plenum"
        ],
        "step_initial_condition": "The building started with 1422 objects.",
        "step_result": "Success",
        "step_values": [
          {
            "name": "enable_rtu_oa",
            "value": true
          },
          {
            "name": "enable_furnace",
            "value": true
          },
          {
            "name": "update_availability",
            "value": true
          },
          {
            "name": "update_infil_sch",
            "value": true
          },
          {
            "name": "update_thermostats",
            "value": true
          },
          {
            "name": "condition_stairs",
            "value": true
          },
          {
            "name": "update_deck_temp_ctrl",
            "value": true
          },
          {
            "name": "autosize_rtu",
            "value": true
          },
          {
            "name": "autosize_terminals",
            "value": true
          },
          {
            "name": "autosize_airloop",
            "value": true
          },
          {
            "name": "setup_non_default_space_types",
            "value": true
          }
        ],
        "step_warnings": []
      }
    },
    {
      "arguments": {
        "run_period_type": "RunPeriod"
      },
      "description": "Option 1 Description: This is addressing issue with forward translation of OpenStudio Schedule Rulesets to Schedule Week in EnergyPlus. The start day of week for this logic appears to  apply that day of week to January 1st, however when the simulation is runEnergyPlus uses that as the day of the week for the RunPeriod, which for example may be July 25th, not January first. If I just change the start date.",
      "measure_dir_name": "change_run_period_start_day_of_week",
      "name": "Change Start Day of Week",
      "result": {
        "completed_at": "20180320T065335Z",
        "measure_class_name": "ChangeRunPeriodStartDayOfWeek",
        "measure_display_name": "Change RunPeriod Start Day Of Week",
        "measure_name": "change_run_period_start_day_of_week",
        "measure_taxonomy": "Whole Building.Whole Building Schedules",
        "measure_type": "EnergyPlusMeasure",
        "measure_uid": "23862727-2544-4817-b92b-ac901014f545",
        "measure_version_id": "9dcb4e91-add9-4ccb-a436-78f3ca59e0b1",
        "measure_version_modified": "20171025T182354Z",
        "measure_xml_checksum": "9F9F47EF",
        "started_at": "20180320T065335Z",
        "stderr": "",
        "stdout": "[OpenStudio.Measure] <0> OSArgumentVector is deprecated, use OpenStudio::Measure::OSArgumentVector instead.\n",
        "step_errors": [],
        "step_files": [],
        "step_final_condition": "The building finished with 1 run periods.",
        "step_info": [
          " 1/1/2015 is a Thursday",
          "RunPeriod,\n  Run Period 1,                           !- Name\n  1,                                      !- Begin Month\n  1,                                      !- Begin Day of Month\n  12,                                     !- End Month\n  31,                                     !- End Day of Month\n  Thursday,                               !- Day of Week for Start Day\n  No,                                     !- Use Weather File Holidays and Special Days\n  No,                                     !- Use Weather File Daylight Saving Period\n  No,                                     !- Apply Weekend Holiday Rule\n  Yes,                                    !- Use Weather File Rain Indicators\n  Yes,                                    !- Use Weather File Snow Indicators\n  1,                                      !- Number of Times Runperiod to be Repeated\n  ,                                       !- Increment Day of Week on repeat\n  2015;                                   !- Start Year\n\n"
        ],
        "step_initial_condition": "The building started with 1 run periods.",
        "step_result": "Success",
        "step_values": [
          {
            "name": "run_period_type",
            "value": "RunPeriod"
          }
        ],
        "step_warnings": []
      }
    },
    {
      "arguments": {
        "air_loops_detail_section": true,
        "annual_overview_section": true,
        "building_summary_section": true,
        "cost_summary_section": true,
        "envelope_section_section": true,
        "exterior_light_section": true,
        "hvac_load_profile": true,
        "interior_lighting_section": true,
        "monthly_overview_section": true,
        "outdoor_air_section": true,
        "plant_loops_detail_section": true,
        "plug_loads_section": true,
        "schedules_overview_section": true,
        "source_energy_section": true,
        "space_type_breakdown_section": true,
        "space_type_details_section": true,
        "utility_bills_rates_section": true,
        "water_use_section": true,
        "zone_condition_section": true,
        "zone_equipment_detail_section": true,
        "zone_summary_section": true
      },
      "description": "Option 1 Description: This measure creates high level tables and charts pulling both from model inputs and EnergyPlus results. It has building level information as well as detail on space types, thermal zones, HVAC systems, envelope characteristics, and economics. Click the heading above a chart to view a table of the chart data.",
      "measure_dir_name": "861c42ba-2105-49e6-b727-9fc3567f4834",
      "name": "OpenStudio Results",
      "result": {
        "completed_at": "20180320T065438Z",
        "measure_class_name": "OpenStudioResults",
        "measure_display_name": "OpenStudio Results",
        "measure_name": "openstudio_results",
        "measure_taxonomy": "Reporting.QAQC",
        "measure_type": "ReportingMeasure",
        "measure_uid": "a25386cd-60e4-46bc-8b11-c755f379d916",
        "measure_version_id": "d255d6a3-d97e-47fc-a19d-59051f5fb8c0",
        "measure_version_modified": "20171027T162624Z",
        "measure_xml_checksum": "557BF06F",
        "started_at": "20180320T065427Z",
        "stderr": "",
        "stdout": "[OpenStudio.Measure] <0> OSArgumentVector is deprecated, use OpenStudio::Measure::OSArgumentVector instead.\n",
        "step_errors": [],
        "step_files": [
          "/Users/dgoldwas/Documents/GitHub/NREL/FRP_Models/PAT Projects/PAT_FRP_combined_March_2018/temp_data/analysis_9e88dcac-5f5b-4d37-8e84-81571c9fde5e/data_point_b7f86f83-5684-4f4f-98a4-dd3dbd486b8a/run/014_861c42ba-2105-49e6-b727-9fc3567f4834/report.html"
        ],
        "step_final_condition": "Generated report with 21 sections to ./report.html.",
        "step_info": [],
        "step_initial_condition": "Gathering data from EnergyPlus SQL file and OSM model.",
        "step_result": "Success",
        "step_values": [
          {
            "name": "building_summary_section",
            "value": true
          },
          {
            "name": "annual_overview_section",
            "value": true
          },
          {
            "name": "monthly_overview_section",
            "value": true
          },
          {
            "name": "utility_bills_rates_section",
            "value": true
          },
          {
            "name": "envelope_section_section",
            "value": true
          },
          {
            "name": "space_type_breakdown_section",
            "value": true
          },
          {
            "name": "space_type_details_section",
            "value": true
          },
          {
            "name": "interior_lighting_section",
            "value": true
          },
          {
            "name": "plug_loads_section",
            "value": true
          },
          {
            "name": "exterior_light_section",
            "value": true
          },
          {
            "name": "water_use_section",
            "value": true
          },
          {
            "name": "hvac_load_profile",
            "value": true
          },
          {
            "name": "zone_condition_section",
            "value": true
          },
          {
            "name": "zone_summary_section",
            "value": true
          },
          {
            "name": "zone_equipment_detail_section",
            "value": true
          },
          {
            "name": "air_loops_detail_section",
            "value": true
          },
          {
            "name": "plant_loops_detail_section",
            "value": true
          },
          {
            "name": "outdoor_air_section",
            "value": true
          },
          {
            "name": "cost_summary_section",
            "value": true
          },
          {
            "name": "source_energy_section",
            "value": true
          },
          {
            "name": "schedules_overview_section",
            "value": true
          },
          {
            "display_name": "FRP_RTU",
            "name": "building_name",
            "value": "building_name"
          },
          {
            "name": "net_site_energy",
            "units": "kBtu",
            "value": 164266.185121501
          },
          {
            "name": "total_building_area",
            "units": "ft^2",
            "value": 3528.517473701614
          },
          {
            "name": "eui",
            "units": "kBtu/ft^2",
            "value": 46.55388172108909
          },
          {
            "name": "unmet_hours_during_heating",
            "units": "hr",
            "value": 171.5
          },
          {
            "name": "unmet_hours_during_cooling",
            "units": "hr",
            "value": 1189.25
          },
          {
            "name": "unmet_hours_during_occupied_heating",
            "units": "hr",
            "value": 57.75
          },
          {
            "name": "unmet_hours_during_occupied_cooling",
            "units": "hr",
            "value": 466
          },
          {
            "name": "unmet_hours_tolerance_heating",
            "units": "F",
            "value": 0.36
          },
          {
            "name": "unmet_hours_tolerance_cooling",
            "units": "F",
            "value": 0.36
          },
          {
            "name": "end_use_heating",
            "units": "kBtu",
            "value": 26861.137189679415
          },
          {
            "name": "end_use_cooling",
            "units": "kBtu",
            "value": 48471.367532823046
          },
          {
            "name": "end_use_interior_lighting",
            "units": "kBtu",
            "value": 29600.328667384896
          },
          {
            "name": "end_use_exterior_lighting",
            "units": "kBtu",
            "value": 0
          },
          {
            "name": "end_use_interior_equipment",
            "units": "kBtu",
            "value": 32007.784152980727
          },
          {
            "name": "end_use_exterior_equipment",
            "units": "kBtu",
            "value": 0
          },
          {
            "name": "end_use_fans",
            "units": "kBtu",
            "value": 27325.567578632938
          },
          {
            "name": "end_use_pumps",
            "units": "kBtu",
            "value": 0
          },
          {
            "name": "end_use_heat_rejection",
            "units": "kBtu",
            "value": 0
          },
          {
            "name": "end_use_humidification",
            "units": "kBtu",
            "value": 0
          },
          {
            "name": "end_use_heat_recovery",
            "units": "kBtu",
            "value": 0
          },
          {
            "name": "end_use_water_systems",
            "units": "kBtu",
            "value": 0
          },
          {
            "name": "end_use_refrigeration",
            "units": "kBtu",
            "value": 0
          },
          {
            "name": "end_use_generators",
            "units": "kBtu",
            "value": 0
          },
          {
            "name": "fuel_electricity",
            "units": "kBtu",
            "value": 155678.96201146237
          },
          {
            "name": "fuel_natural_gas",
            "units": "kBtu",
            "value": 8587.223110038654
          },
          {
            "name": "fuel_additional_fuel",
            "units": "kBtu",
            "value": 0
          },
          {
            "name": "fuel_district_cooling",
            "units": "kBtu",
            "value": 0
          },
          {
            "name": "fuel_district_heating",
            "units": "kBtu",
            "value": 0
          },
          {
            "name": "end_use_electricity_heating",
            "units": "kWh",
            "value": 5355.555555555556
          },
          {
            "name": "end_use_electricity_cooling",
            "units": "kWh",
            "value": 14205.555555555557
          },
          {
            "name": "end_use_electricity_interior_lighting",
            "units": "kWh",
            "value": 8675
          },
          {
            "name": "end_use_electricity_exterior_lighting",
            "units": "kWh",
            "value": 0
          },
          {
            "name": "end_use_electricity_interior_equipment",
            "units": "kWh",
            "value": 9380.555555555557
          },
          {
            "name": "end_use_electricity_exterior_equipment",
            "units": "kWh",
            "value": 0
          },
          {
            "name": "end_use_electricity_fans",
            "units": "kWh",
            "value": 8008.333333333333
          },
          {
            "name": "end_use_electricity_pumps",
            "units": "kWh",
            "value": 0
          },
          {
            "name": "end_use_electricity_heat_rejection",
            "units": "kWh",
            "value": 0
          },
          {
            "name": "end_use_electricity_humidification",
            "units": "kWh",
            "value": 0
          },
          {
            "name": "end_use_electricity_heat_recovery",
            "units": "kWh",
            "value": 0
          },
          {
            "name": "end_use_electricity_water_systems",
            "units": "kWh",
            "value": 0
          },
          {
            "name": "end_use_electricity_refrigeration",
            "units": "kWh",
            "value": 0
          },
          {
            "name": "end_use_electricity_generators",
            "units": "kWh",
            "value": 0
          },
          {
            "name": "end_use_natural_gas_heating",
            "units": "therms",
            "value": 85.8888
          },
          {
            "name": "end_use_natural_gas_cooling",
            "units": "therms",
            "value": 0
          },
          {
            "name": "end_use_natural_gas_interior_lighting",
            "units": "therms",
            "value": 0
          },
          {
            "name": "end_use_natural_gas_exterior_lighting",
            "units": "therms",
            "value": 0
          },
          {
            "name": "end_use_natural_gas_interior_equipment",
            "units": "therms",
            "value": 0
          },
          {
            "name": "end_use_natural_gas_exterior_equipment",
            "units": "therms",
            "value": 0
          },
          {
            "name": "end_use_natural_gas_fans",
            "units": "therms",
            "value": 0
          },
          {
            "name": "end_use_natural_gas_pumps",
            "units": "therms",
            "value": 0
          },
          {
            "name": "end_use_natural_gas_heat_rejection",
            "units": "therms",
            "value": 0
          },
          {
            "name": "end_use_natural_gas_humidification",
            "units": "therms",
            "value": 0
          },
          {
            "name": "end_use_natural_gas_heat_recovery",
            "units": "therms",
            "value": 0
          },
          {
            "name": "end_use_natural_gas_water_systems",
            "units": "therms",
            "value": 0
          },
          {
            "name": "end_use_natural_gas_refrigeration",
            "units": "therms",
            "value": 0
          },
          {
            "name": "end_use_natural_gas_generators",
            "units": "therms",
            "value": 0
          },
          {
            "name": "electricity_heating_ip",
            "units": "kWh",
            "value": 5355.302424138889
          },
          {
            "name": "electricity_cooling_ip",
            "units": "kWh",
            "value": 14204.873055555556
          },
          {
            "name": "electricity_interior_lighting_ip",
            "units": "kWh",
            "value": 8675.661111111112
          },
          {
            "name": "electricity_exterior_lighting_ip",
            "units": "kWh",
            "value": 0
          },
          {
            "name": "electricity_interior_equipment_ip",
            "units": "kWh",
            "value": 9381.713888888888
          },
          {
            "name": "electricity_exterior_equipment_ip",
            "units": "kWh",
            "value": 0
          },
          {
            "name": "electricity_fans_ip",
            "units": "kWh",
            "value": 8007.2
          },
          {
            "name": "electricity_pumps_ip",
            "units": "kWh",
            "value": 0
          },
          {
            "name": "electricity_heat_rejection_ip",
            "units": "kWh",
            "value": 0
          },
          {
            "name": "electricity_humidification_ip",
            "units": "kWh",
            "value": 0
          },
          {
            "name": "electricity_heat_recovery_ip",
            "units": "kWh",
            "value": 0
          },
          {
            "name": "electricity_water_systems_ip",
            "units": "kWh",
            "value": 0
          },
          {
            "name": "electricity_refrigeration_ip",
            "units": "kWh",
            "value": 0
          },
          {
            "name": "electricity_generators_ip",
            "units": "kWh",
            "value": 0
          },
          {
            "name": "electricity_ip",
            "units": "kWh",
            "value": 45624.75047969444
          },
          {
            "name": "natural_gas_heating_ip",
            "units": "MBtu",
            "value": 8.5859969563741
          },
          {
            "name": "natural_gas_cooling_ip",
            "units": "MBtu",
            "value": 0
          },
          {
            "name": "natural_gas_interior_lighting_ip",
            "units": "MBtu",
            "value": 0
          },
          {
            "name": "natural_gas_exterior_lighting_ip",
            "units": "MBtu",
            "value": 0
          },
          {
            "name": "natural_gas_interior_equipment_ip",
            "units": "MBtu",
            "value": 0
          },
          {
            "name": "natural_gas_exterior_equipment_ip",
            "units": "MBtu",
            "value": 0
          },
          {
            "name": "natural_gas_fans_ip",
            "units": "MBtu",
            "value": 0
          },
          {
            "name": "natural_gas_pumps_ip",
            "units": "MBtu",
            "value": 0
          },
          {
            "name": "natural_gas_heat_rejection_ip",
            "units": "MBtu",
            "value": 0
          },
          {
            "name": "natural_gas_humidification_ip",
            "units": "MBtu",
            "value": 0
          },
          {
            "name": "natural_gas_heat_recovery_ip",
            "units": "MBtu",
            "value": 0
          },
          {
            "name": "natural_gas_water_systems_ip",
            "units": "MBtu",
            "value": 0
          },
          {
            "name": "natural_gas_refrigeration_ip",
            "units": "MBtu",
            "value": 0
          },
          {
            "name": "natural_gas_generators_ip",
            "units": "MBtu",
            "value": 0
          },
          {
            "name": "natural_gas_ip",
            "units": "MBtu",
            "value": 8.5859969563741
          },
          {
            "name": "additional_fuel_heating_ip",
            "units": "MBtu",
            "value": 0
          },
          {
            "name": "additional_fuel_cooling_ip",
            "units": "MBtu",
            "value": 0
          },
          {
            "name": "additional_fuel_interior_lighting_ip",
            "units": "MBtu",
            "value": 0
          },
          {
            "name": "additional_fuel_exterior_lighting_ip",
            "units": "MBtu",
            "value": 0
          },
          {
            "name": "additional_fuel_interior_equipment_ip",
            "units": "MBtu",
            "value": 0
          },
          {
            "name": "additional_fuel_exterior_equipment_ip",
            "units": "MBtu",
            "value": 0
          },
          {
            "name": "additional_fuel_fans_ip",
            "units": "MBtu",
            "value": 0
          },
          {
            "name": "additional_fuel_pumps_ip",
            "units": "MBtu",
            "value": 0
          },
          {
            "name": "additional_fuel_heat_rejection_ip",
            "units": "MBtu",
            "value": 0
          },
          {
            "name": "additional_fuel_humidification_ip",
            "units": "MBtu",
            "value": 0
          },
          {
            "name": "additional_fuel_heat_recovery_ip",
            "units": "MBtu",
            "value": 0
          },
          {
[...]
        "verbose_messages": false,
        "warning_messages": true,
        "year": true
      },
      "description": "Creates Objective Function from Timeseries Data",
      "measure_dir_name": "TimeseriesObjectiveFunction",
      "name": "timeseries_objective_function_2_2_2_2_2_2_2_2",
      "result": {
        "completed_at": "20180320T065444Z",
        "measure_class_name": "TimeseriesObjectiveFunction",
        "measure_display_name": "TimeSeries Objective Function",
        "measure_name": "timeseries_objective_function",
        "measure_taxonomy": "Reporting.QAQC",
        "measure_type": "ReportingMeasure",
        "measure_uid": "6804217d-4737-45f3-82df-b81393c29ce3",
        "measure_version_id": "86a824f0-457c-4121-bcaa-a58b0e8f9983",
        "measure_version_modified": "20180308T200150Z",
        "measure_xml_checksum": "FFE04372",
        "started_at": "20180320T065444Z",
        "stderr": "",
        "stdout": "",
        "step_errors": [],
        "step_files": [],
        "step_info": [],
        "step_result": "Skip",
        "step_values": [],
        "step_warnings": []
      }
    },
    {
      "arguments": {
        "__SKIP__": true,
        "add_first_zero_for_plots": false,
        "add_last_zero_for_plots": false,
        "algorithm_download": false,
        "convert_data": "None",
        "csv_name": "../../../lib/resources/mtr.csv",
        "csv_time_header": "Date/Time",
        "csv_var": "Whole Building:Facility Total Electric Demand Power [W](TimeStep)",
        "csv_var_dn": "",
        "environment_period": "RUN PERIOD 1",
        "find_avail": true,
        "key_value": "",
        "norm": 1,
        "plot_flag": true,
        "plot_name": "",
        "reporting_frequency": "Timestep",
        "scale": 1,
        "seconds": false,
        "timeseries_name": "Facility Total Electric Demand Power",
        "verbose_messages": false,
        "warning_messages": true,
        "year": true
      },
      "description": "Creates Objective Function from Timeseries Data",
      "measure_dir_name": "TimeseriesObjectiveFunction",
      "name": "timeseries_objective_function_2_2_2_2_2_2_2_2_2",
      "result": {
        "completed_at": "20180320T065444Z",
        "measure_class_name": "TimeseriesObjectiveFunction",
        "measure_display_name": "TimeSeries Objective Function",
        "measure_name": "timeseries_objective_function",
        "measure_taxonomy": "Reporting.QAQC",
        "measure_type": "ReportingMeasure",
        "measure_uid": "6804217d-4737-45f3-82df-b81393c29ce3",
        "measure_version_id": "86a824f0-457c-4121-bcaa-a58b0e8f9983",
        "measure_version_modified": "20180308T200150Z",
        "measure_xml_checksum": "FFE04372",
        "started_at": "20180320T065444Z",
        "stderr": "",
        "stdout": "",
        "step_errors": [],
        "step_files": [],
        "step_info": [],
        "step_result": "Skip",
        "step_values": [],
        "step_warnings": []
      }
    },
    {
      "arguments": {
        "__SKIP__": true,
        "add_first_zero_for_plots": false,
        "add_last_zero_for_plots": false,
        "algorithm_download": false,
        "convert_data": "None",
        "csv_name": "../../../lib/resources/mtr.csv",
        "csv_time_header": "Date/Time",
        "csv_var": "Whole Building:Facility Total Electric Demand Power [W](TimeStep)",
        "csv_var_dn": "",
        "environment_period": "RUN PERIOD 1",
        "find_avail": true,
        "key_value": "",
        "norm": 1,
        "plot_flag": true,
        "plot_name": "",
        "reporting_frequency": "Timestep",
        "scale": 1,
        "seconds": false,
        "timeseries_name": "Facility Total Electric Demand Power",
        "verbose_messages": false,
        "warning_messages": true,
        "year": true
      },
      "description": "Creates Objective Function from Timeseries Data",
      "measure_dir_name": "TimeseriesObjectiveFunction",
      "name": "timeseries_objective_function_2_2_2_2_2_2_2_2_2_2",
      "result": {
        "completed_at": "20180320T065444Z",
        "measure_class_name": "TimeseriesObjectiveFunction",
        "measure_display_name": "TimeSeries Objective Function",
        "measure_name": "timeseries_objective_function",
        "measure_taxonomy": "Reporting.QAQC",
        "measure_type": "ReportingMeasure",
        "measure_uid": "6804217d-4737-45f3-82df-b81393c29ce3",
        "measure_version_id": "86a824f0-457c-4121-bcaa-a58b0e8f9983",
        "measure_version_modified": "20180308T200150Z",
        "measure_xml_checksum": "FFE04372",
        "started_at": "20180320T065444Z",
        "stderr": "",
        "stdout": "",
        "step_errors": [],
        "step_files": [],
        "step_info": [],
        "step_result": "Skip",
        "step_values": [],
        "step_warnings": []
      }
    },
    {
      "arguments": {
        "__SKIP__": true,
        "add_first_zero_for_plots": false,
        "add_last_zero_for_plots": false,
        "algorithm_download": false,
        "convert_data": "None",
        "csv_name": "../../../lib/resources/mtr.csv",
        "csv_time_header": "Date/Time",
        "csv_var": "Whole Building:Facility Total Electric Demand Power [W](TimeStep)",
        "csv_var_dn": "",
        "environment_period": "RUN PERIOD 1",
        "find_avail": true,
        "key_value": "",
        "norm": 1,
        "plot_flag": true,
        "plot_name": "",
        "reporting_frequency": "Timestep",
        "scale": 1,
        "seconds": false,
        "timeseries_name": "Facility Total Electric Demand Power",
        "verbose_messages": false,
        "warning_messages": true,
        "year": true
      },
      "description": "Creates Objective Function from Timeseries Data",
      "measure_dir_name": "TimeseriesObjectiveFunction",
      "name": "timeseries_objective_function_2_2_2_2_2_2_2_2_2_2_3",
      "result": {
        "completed_at": "20180320T065444Z",
        "measure_class_name": "TimeseriesObjectiveFunction",
        "measure_display_name": "TimeSeries Objective Function",
        "measure_name": "timeseries_objective_function",
        "measure_taxonomy": "Reporting.QAQC",
        "measure_type": "ReportingMeasure",
        "measure_uid": "6804217d-4737-45f3-82df-b81393c29ce3",
        "measure_version_id": "86a824f0-457c-4121-bcaa-a58b0e8f9983",
        "measure_version_modified": "20180308T200150Z",
        "measure_xml_checksum": "FFE04372",
        "started_at": "20180320T065444Z",
        "stderr": "",
        "stdout": "",
        "step_errors": [],
        "step_files": [],
        "step_info": [],
        "step_result": "Skip",
        "step_values": [],
        "step_warnings": []
      }
    },
    {
      "arguments": {
        "__SKIP__": true,
        "add_first_zero_for_plots": false,
        "add_last_zero_for_plots": false,
        "algorithm_download": false,
        "convert_data": "None",
        "csv_name": "../../../lib/resources/mtr.csv",
        "csv_time_header": "Date/Time",
        "csv_var": "Whole Building:Facility Total Electric Demand Power [W](TimeStep)",
        "csv_var_dn": "",
        "environment_period": "RUN PERIOD 1",
        "find_avail": true,
        "key_value": "",
        "norm": 1,
        "plot_flag": true,
        "plot_name": "",
        "reporting_frequency": "Timestep",
        "scale": 1,
        "seconds": false,
        "timeseries_name": "Facility Total Electric Demand Power",
        "verbose_messages": false,
        "warning_messages": true,
        "year": true
      },
      "description": "Creates Objective Function from Timeseries Data",
      "measure_dir_name": "TimeseriesObjectiveFunction",
      "name": "timeseries_objective_function_2_2_2_2_2_2_2_2_2_2_2",
      "result": {
        "completed_at": "20180320T065444Z",
        "measure_class_name": "TimeseriesObjectiveFunction",
        "measure_display_name": "TimeSeries Objective Function",
        "measure_name": "timeseries_objective_function",
        "measure_taxonomy": "Reporting.QAQC",
        "measure_type": "ReportingMeasure",
        "measure_uid": "6804217d-4737-45f3-82df-b81393c29ce3",
        "measure_version_id": "86a824f0-457c-4121-bcaa-a58b0e8f9983",
        "measure_version_modified": "20180308T200150Z",
        "measure_xml_checksum": "FFE04372",
        "started_at": "20180320T065444Z",
        "stderr": "",
        "stdout": "",
        "step_errors": [],
        "step_files": [],
        "step_info": [],
        "step_result": "Skip",
        "step_values": [],
        "step_warnings": []
      }
    },
    {
      "arguments": {
        "__SKIP__": true,
        "add_first_zero_for_plots": false,
        "add_last_zero_for_plots": false,
        "algorithm_download": false,
        "convert_data": "None",
        "csv_name": "../../../lib/resources/mtr.csv",
        "csv_time_header": "Date/Time",
        "csv_var": "Whole Building:Facility Total Electric Demand Power [W](TimeStep)",
        "csv_var_dn": "",
        "environment_period": "RUN PERIOD 1",
        "find_avail": true,
        "key_value": "",
        "norm": 1,
        "plot_flag": true,
        "plot_name": "",
        "reporting_frequency": "Timestep",
        "scale": 1,
        "seconds": false,
        "timeseries_name": "Facility Total Electric Demand Power",
        "verbose_messages": false,
        "warning_messages": true,
        "year": true
      },
      "description": "Creates Objective Function from Timeseries Data",
      "measure_dir_name": "TimeseriesObjectiveFunction",
      "name": "timeseries_objective_function_2_2_2_2_2_2_2_2_2_2_2_2",
      "result": {
        "completed_at": "20180320T065444Z",
        "measure_class_name": "TimeseriesObjectiveFunction",
        "measure_display_name": "TimeSeries Objective Function",
        "measure_name": "timeseries_objective_function",
        "measure_taxonomy": "Reporting.QAQC",
        "measure_type": "ReportingMeasure",
        "measure_uid": "6804217d-4737-45f3-82df-b81393c29ce3",
        "measure_version_id": "86a824f0-457c-4121-bcaa-a58b0e8f9983",
        "measure_version_modified": "20180308T200150Z",
        "measure_xml_checksum": "FFE04372",
        "started_at": "20180320T065444Z",
        "stderr": "",
        "stdout": "",
        "step_errors": [],
        "step_files": [],
        "step_info": [],
        "step_result": "Skip",
        "step_values": [],
        "step_warnings": []
      }
    },
    {
      "arguments": {
        "__SKIP__": true,
        "add_first_zero_for_plots": false,
        "add_last_zero_for_plots": false,
        "algorithm_download": false,
        "convert_data": "None",
        "csv_name": "../../../lib/resources/mtr.csv",
        "csv_time_header": "Date/Time",
        "csv_var": "Whole Building:Facility Total Electric Demand Power [W](TimeStep)",
        "csv_var_dn": "",
        "environment_period": "RUN PERIOD 1",
        "find_avail": true,
        "key_value": "",
        "norm": 1,
        "plot_flag": true,
        "plot_name": "",
        "reporting_frequency": "Timestep",
        "scale": 1,
        "seconds": false,
        "timeseries_name": "Facility Total Electric Demand Power",
        "verbose_messages": false,
        "warning_messages": true,
        "year": true
      },
      "description": "Creates Objective Function from Timeseries Data",
      "measure_dir_name": "TimeseriesObjectiveFunction",
      "name": "timeseries_objective_function_2_2_2_2_2_2_2_2_2_2_2_2_2",
      "result": {
        "completed_at": "20180320T065444Z",
        "measure_class_name": "TimeseriesObjectiveFunction",
        "measure_display_name": "TimeSeries Objective Function",
        "measure_name": "timeseries_objective_function",
        "measure_taxonomy": "Reporting.QAQC",
        "measure_type": "ReportingMeasure",
        "measure_uid": "6804217d-4737-45f3-82df-b81393c29ce3",
        "measure_version_id": "86a824f0-457c-4121-bcaa-a58b0e8f9983",
        "measure_version_modified": "20180308T200150Z",
        "measure_xml_checksum": "FFE04372",
        "started_at": "20180320T065444Z",
        "stderr": "",
        "stdout": "",
        "step_errors": [],
        "step_files": [],
        "step_info": [],
        "step_result": "Skip",
        "step_values": [],
        "step_warnings": []
      }
    },
    {
      "arguments": {
        "__SKIP__": true,
        "add_first_zero_for_plots": false,
        "add_last_zero_for_plots": false,
        "algorithm_download": false,
        "convert_data": "None",
        "csv_name": "../../../lib/resources/mtr.csv",
        "csv_time_header": "Date/Time",
        "csv_var": "Whole Building:Facility Total Electric Demand Power [W](TimeStep)",
        "csv_var_dn": "",
        "environment_period": "RUN PERIOD 1",
        "find_avail": true,
        "key_value": "",
        "norm": 1,
        "plot_flag": true,
        "plot_name": "",
        "reporting_frequency": "Timestep",
        "scale": 1,
        "seconds": false,
        "timeseries_name": "Facility Total Electric Demand Power",
        "verbose_messages": false,
        "warning_messages": true,
        "year": true
      },
      "description": "Creates Objective Function from Timeseries Data",
      "measure_dir_name": "TimeseriesObjectiveFunction",
      "name": "timeseries_objective_function_2_2_2_2_2_2_2_2_2_2_2_2_2_2",
      "result": {
        "completed_at": "20180320T065444Z",
        "measure_class_name": "TimeseriesObjectiveFunction",
        "measure_display_name": "TimeSeries Objective Function",
        "measure_name": "timeseries_objective_function",
        "measure_taxonomy": "Reporting.QAQC",
        "measure_type": "ReportingMeasure",
        "measure_uid": "6804217d-4737-45f3-82df-b81393c29ce3",
        "measure_version_id": "86a824f0-457c-4121-bcaa-a58b0e8f9983",
        "measure_version_modified": "20180308T200150Z",
        "measure_xml_checksum": "FFE04372",
        "started_at": "20180320T065444Z",
        "stderr": "",
        "stdout": "",
        "step_errors": [],
        "step_files": [],
        "step_info": [],
        "step_result": "Skip",
        "step_values": [],
        "step_warnings": []
      }
    },
    {
      "arguments": {
        "__SKIP__": true,
        "add_first_zero_for_plots": false,
        "add_last_zero_for_plots": false,
        "algorithm_download": false,
        "convert_data": "None",
        "csv_name": "../../../lib/resources/mtr.csv",
        "csv_time_header": "Date/Time",
        "csv_var": "Whole Building:Facility Total Electric Demand Power [W](TimeStep)",
        "csv_var_dn": "",
        "environment_period": "RUN PERIOD 1",
        "find_avail": true,
        "key_value": "",
        "norm": 1,
        "plot_flag": true,
        "plot_name": "",
        "reporting_frequency": "Timestep",
        "scale": 1,
        "seconds": false,
        "timeseries_name": "Facility Total Electric Demand Power",
        "verbose_messages": false,
        "warning_messages": true,
        "year": true
      },
      "description": "Creates Objective Function from Timeseries Data",
      "measure_dir_name": "TimeseriesObjectiveFunction",
      "name": "timeseries_objective_function_2_2_2_2_2_2_2_2_2_2_2_2_2_2_2",
      "result": {
        "completed_at": "20180320T065444Z",
        "measure_class_name": "TimeseriesObjectiveFunction",
        "measure_display_name": "TimeSeries Objective Function",
        "measure_name": "timeseries_objective_function",
        "measure_taxonomy": "Reporting.QAQC",
        "measure_type": "ReportingMeasure",
        "measure_uid": "6804217d-4737-45f3-82df-b81393c29ce3",
        "measure_version_id": "86a824f0-457c-4121-bcaa-a58b0e8f9983",
        "measure_version_modified": "20180308T200150Z",
        "measure_xml_checksum": "FFE04372",
        "started_at": "20180320T065444Z",
        "stderr": "",
        "stdout": "",
        "step_errors": [],
        "step_files": [],
        "step_info": [],
        "step_result": "Skip",
        "step_values": [],
        "step_warnings": []
      }
    },
    {
      "arguments": {
        "__SKIP__": true,
        "add_first_zero_for_plots": false,
        "add_last_zero_for_plots": false,
        "algorithm_download": false,
        "convert_data": "None",
        "csv_name": "../../../lib/resources/mtr.csv",
        "csv_time_header": "Date/Time",
        "csv_var": "Whole Building:Facility Total Electric Demand Power [W](TimeStep)",
        "csv_var_dn": "",
        "environment_period": "RUN PERIOD 1",
        "find_avail": true,
        "key_value": "",
        "norm": 1,
        "plot_flag": true,
        "plot_name": "",
        "reporting_frequency": "Timestep",
        "scale": 1,
        "seconds": false,
        "timeseries_name": "Facility Total Electric Demand Power",
        "verbose_messages": false,
        "warning_messages": true,
        "year": true
      },
      "description": "Creates Objective Function from Timeseries Data",
      "measure_dir_name": "TimeseriesObjectiveFunction",
      "name": "timeseries_objective_function_2_2_2_2_2_2_2_2_2_2_2_2_2_2_2_2",
      "result": {
        "completed_at": "20180320T065444Z",
        "measure_class_name": "TimeseriesObjectiveFunction",
        "measure_display_name": "TimeSeries Objective Function",
        "measure_name": "timeseries_objective_function",
        "measure_taxonomy": "Reporting.QAQC",
        "measure_type": "ReportingMeasure",
        "measure_uid": "6804217d-4737-45f3-82df-b81393c29ce3",
        "measure_version_id": "86a824f0-457c-4121-bcaa-a58b0e8f9983",
        "measure_version_modified": "20180308T200150Z",
        "measure_xml_checksum": "FFE04372",
        "started_at": "20180320T065444Z",
        "stderr": "",
        "stdout": "",
        "step_errors": [],
        "step_files": [],
        "step_info": [],
        "step_result": "Skip",
        "step_values": [],
        "step_warnings": []
      }
    },
    {
      "arguments": {
        "__SKIP__": true,
        "add_first_zero_for_plots": false,
        "add_last_zero_for_plots": false,
        "algorithm_download": false,
        "convert_data": "None",
        "csv_name": "../../../lib/resources/mtr.csv",
        "csv_time_header": "Date/Time",
        "csv_var": "Whole Building:Facility Total Electric Demand Power [W](TimeStep)",
        "csv_var_dn": "",
        "environment_period": "RUN PERIOD 1",
        "find_avail": true,
        "key_value": "",
        "norm": 1,
        "plot_flag": true,
        "plot_name": "",
        "reporting_frequency": "Timestep",
        "scale": 1,
        "seconds": false,
        "timeseries_name": "Facility Total Electric Demand Power",
        "verbose_messages": false,
        "warning_messages": true,
        "year": true
      },
      "description": "Creates Objective Function from Timeseries Data",
      "measure_dir_name": "TimeseriesObjectiveFunction",
      "name": "timeseries_objective_function_2_2_2_2_2_2_2_2_2_2_2_2_2_2_2_2_2",
      "result": {
        "completed_at": "20180320T065444Z",
        "measure_class_name": "TimeseriesObjectiveFunction",
        "measure_display_name": "TimeSeries Objective Function",
        "measure_name": "timeseries_objective_function",
        "measure_taxonomy": "Reporting.QAQC",
        "measure_type": "ReportingMeasure",
        "measure_uid": "6804217d-4737-45f3-82df-b81393c29ce3",
        "measure_version_id": "86a824f0-457c-4121-bcaa-a58b0e8f9983",
        "measure_version_modified": "20180308T200150Z",
        "measure_xml_checksum": "FFE04372",
        "started_at": "20180320T065444Z",
        "stderr": "",
        "stdout": "",
        "step_errors": [],
        "step_files": [],
        "step_info": [],
        "step_result": "Skip",
        "step_values": [],
        "step_warnings": []
      }
    }
  ],
  "updated_at": "20180320T065451Z",
  "weather_file": "Oak Ridge_AMY_EPW_010116 to 032916_thur.epw"
}