{
  "completed_at": "20180511T145558Z",
  "completed_status": "Success",
  "created_at": "2018-05-11 08:55:15 -0600",
  "current_step": 17,
  "description": "Autogenerated 3",
  "eplusout_err": "Program Version,EnergyPlus, Version 8.9.0-eba93e8e1b, YMD=2018.05.11 08:55,\n   ** Warning ** ProcessScheduleInput: DecodeHHMMField, Invalid \"until\" field value is not a multiple of the minutes for each timestep: 21:43\n   **   ~~~   ** Other errors may result. Occurred in Day Schedule=FANAVAILSCHED DEFAULT SCHEDULE\n   ** Warning ** ProcessScheduleInput: Schedule:Day:Interval=\"SCHEDULE DAY 1\", , One or more values are not integer as required by Schedule Type Limits Name=ONOFF 1\n   ** Warning ** ProcessScheduleInput: Schedule:Day:Interval=\"SCHEDULE DAY 10\", Blank Schedule Type Limits Name input -- will not be validated.\n   ** Warning ** ProcessScheduleInput: Schedule:Day:Interval=\"SCHEDULE DAY 11\", Blank Schedule Type Limits Name input -- will not be validated.\n   ** Warning ** ProcessScheduleInput: Schedule:Day:Interval=\"SCHEDULE DAY 12\", Blank Schedule Type Limits Name input -- will not be validated.\n   ** Warning ** ProcessScheduleInput: Schedule:Day:Interval=\"SCHEDULE DAY 13\", Blank Schedule Type Limits Name input -- will not be validated.\n   ** Warning ** ProcessScheduleInput: Schedule:Day:Interval=\"SCHEDULE DAY 14\", Blank Schedule Type Limits Name input -- will not be validated.\n   ** Warning ** ProcessScheduleInput: Schedule:Day:Interval=\"SCHEDULE DAY 15\", Blank Schedule Type Limits Name input -- will not be validated.\n   ** Warning ** ProcessScheduleInput: Schedule:Day:Interval=\"SCHEDULE DAY 16\", Blank Schedule Type Limits Name input -- will not be validated.\n   ** Warning ** ProcessScheduleInput: Schedule:Day:Interval=\"SCHEDULE DAY 17\", Blank Schedule Type Limits Name input -- will not be validated.\n   ** Warning ** ProcessScheduleInput: Schedule:Day:Interval=\"SCHEDULE DAY 18\", Blank Schedule Type Limits Name input -- will not be validated.\n   ** Warning ** ProcessScheduleInput: Schedule:Day:Interval=\"SCHEDULE DAY 19\", Blank Schedule Type Limits Name input -- will not be validated.\n   ** Warning ** ProcessScheduleInput: Schedule:Day:Interval=\"SCHEDULE DAY 20\", Blank Schedule Type Limits Name input -- will not be validated.\n   ** Warning ** ProcessScheduleInput: Schedule:Day:Interval=\"SCHEDULE DAY 21\", Blank Schedule Type Limits Name input -- will not be validated.\n   ** Warning ** ProcessScheduleInput: Schedule:Day:Interval=\"SCHEDULE DAY 756\", , One or more values are not integer as required by Schedule Type Limits Name=ONOFF 1\n   ** Warning ** ProcessScheduleInput: Schedule:Day:Interval=\"SCHEDULE DAY 9\", Blank Schedule Type Limits Name input -- will not be validated.\n   ************* Beginning Zone Sizing Calculations\n   ** Warning ** GetSimpleAirModelInputs: ZoneInfiltration:DesignFlowRate=\"ROOM 103 INFILTRATION -43.6957018456568 PERCENT REDUCTION\", Design Flow Rate Calculation Method specifies Flow per Exterior Surface Area, but Exterior Wall Area = 0.  0 Infiltration will result.\n   ** Warning ** GetSimpleAirModelInputs: ZoneInfiltration:DesignFlowRate=\"ROOM 202 INFILTRATION -43.6957018456568 PERCENT REDUCTION\", Design Flow Rate Calculation Method specifies Flow per Exterior Surface Area, but Exterior Wall Area = 0.  0 Infiltration will result.\n   ************* Beginning System Sizing Calculations\n   ** Warning ** Since Damper Heating Action = REVERSE, input for Maximum Flow per Zone Floor Area During Reheat will be ignored.\n   **   ~~~   ** Occurs in AirTerminal:SingleDuct:VAV:Reheat = ROOM 102 VAV REHEAT\n   ** Warning ** Since Damper Heating Action = REVERSE, input for Maximum Flow per Zone Floor Area During Reheat will be ignored.\n   **   ~~~   ** Occurs in AirTerminal:SingleDuct:VAV:Reheat = ROOM 103 VAV REHEAT\n   ** Warning ** Since Damper Heating Action = REVERSE, input for Maximum Flow per Zone Floor Area During Reheat will be ignored.\n   **   ~~~   ** Occurs in AirTerminal:SingleDuct:VAV:Reheat = ROOM 104 VAV REHEAT\n   ** Warning ** Since Damper Heating Action = REVERSE, input for Maximum Flow per Zone Floor Area During Reheat will be ignored.\n   **   ~~~   ** Occurs in AirTerminal:SingleDuct:VAV:Reheat = ROOM 105 VAV REHEAT\n   ** Warning ** Since Damper Heating Action = REVERSE, input for Maximum Flow per Zone Floor Area During Reheat will be ignored.\n   **   ~~~   ** Occurs in AirTerminal:SingleDuct:VAV:Reheat = ROOM 106 VAV REHEAT\n   ** Warning ** Since Zone Minimum Air Flow Input Method = FIXEDFLOWRATE, input for Constant Minimum Air Flow Fraction will be ignored.\n   **   ~~~   ** Occurs in AirTerminal:SingleDuct:VAV:Reheat = ROOM 202 VAV REHEAT\n   ** Warning ** Since Damper Heating Action = REVERSE, input for Maximum Flow per Zone Floor Area During Reheat will be ignored.\n   **   ~~~   ** Occurs in AirTerminal:SingleDuct:VAV:Reheat = ROOM 202 VAV REHEAT\n   ** Warning ** Since Damper Heating Action = REVERSE, input for Maximum Flow per Zone Floor Area During Reheat will be ignored.\n   **   ~~~   ** Occurs in AirTerminal:SingleDuct:VAV:Reheat = ROOM 203 VAV REHEAT\n   ** Warning ** Since Damper Heating Action = REVERSE, input for Maximum Flow per Zone Floor Area During Reheat will be ignored.\n   **   ~~~   ** Occurs in AirTerminal:SingleDuct:VAV:Reheat = ROOM 204 VAV REHEAT\n   ** Warning ** Since Damper Heating Action = REVERSE, input for Maximum Flow per Zone Floor Area During Reheat will be ignored.\n   **   ~~~   ** Occurs in AirTerminal:SingleDuct:VAV:Reheat = ROOM 205 VAV REHEAT\n   ** Warning ** Since Damper Heating Action = REVERSE, input for Maximum Flow per Zone Floor Area During Reheat will be ignored.\n   **   ~~~   ** Occurs in AirTerminal:SingleDuct:VAV:Reheat = ROOM 206 VAV REHEAT\n   ** Warning ** GetDXCoils: Coil:Cooling:DX:TwoStageWithHumidityControlMode=\"ROOFTOP COOLING COIL\" curve values\n   **   ~~~   ** ... Total Cooling Capacity Function of Temperature Curve Name = FIELD DATA STAGE 1 CAPFT output is not equal to 1.0 (+ or - 10%) at rated conditions.\n   **   ~~~   ** ... Curve output at rated conditions = 0.636\n   ** Warning ** GetDXCoils: Coil:Cooling:DX:TwoStageWithHumidityControlMode=\"ROOFTOP COOLING COIL\" curve values\n   **   ~~~   ** ... Energy Input Ratio Function of Temperature Curve Name = FIELD DATA STAGE 1 EIRFT output is not equal to 1.0 (+ or - 10%) at rated conditions.\n   **   ~~~   ** ... Curve output at rated conditions = 0.723\n   ** Warning ** GetDXCoils: Coil:Cooling:DX:TwoStageWithHumidityControlMode=\"ROOFTOP COOLING COIL\" curve values\n   **   ~~~   ** ... Energy Input Ratio Function of Temperature Curve Name = FIELD DATA STAGE 1&2 EIRFT output is not equal to 1.0 (+ or - 10%) at rated conditions.\n   **   ~~~   ** ... Curve output at rated conditions = 0.836\n   ** Warning ** Sizing: Coil:Cooling:DX:TwoStageWithHumidityControlMode \"ROOFTOP COOLING COIL\": Rated air volume flow rate per watt of rated total cooling capacity is out of range.\n   **   ~~~   ** Min Rated Vol Flow Per Watt=[4.027E-005], Rated Vol Flow Per Watt=[2.684E-005], Max Rated Vol Flow Per Watt=[6.041E-005]. See Input Output Reference Manual for valid range.\n   **   ~~~   ** for CoilPerformance:DX:Cooling mode: FIELD DATA STAGE 1\n   ** Warning ** For object = COILPERFORMANCE:DX:COOLING, name = \"FIELD DATA STAGE 1\"\n   **   ~~~   ** Calculated outlet air relative humidity greater than 1. The combination of\n   **   ~~~   ** rated air volume flow rate, total cooling capacity and sensible heat ratio yields coil exiting\n   **   ~~~   ** air conditions above the saturation curve. Possible fixes are to reduce the rated total cooling\n   **   ~~~   ** capacity, increase the rated air volume flow rate, or reduce the rated sensible heat ratio for this coil.\n   **   ~~~   ** If autosizing, it is recommended that all three of these values be autosized.\n   **   ~~~   ** ...Inputs used for calculating cooling coil bypass factor.\n   **   ~~~   ** ...Inlet Air Temperature     = 26.67 C\n   **   ~~~   ** ...Outlet Air Temperature    = 4.94 C\n   **   ~~~   ** ...Inlet Air Humidity Ratio  = 1.125000E-002 kgWater/kgDryAir\n   **   ~~~   ** ...Outlet Air Humidity Ratio = 7.297196E-003 kgWater/kgDryAir\n   **   ~~~   ** ...Total Cooling Capacity used in calculation = 43960.66 W\n   **   ~~~   ** ...Air Mass Flow Rate used in calculation     = 1.364821 kg/s\n   **   ~~~   ** ...Air Volume Flow Rate used in calculation   = 1.180000 m3/s\n   **   ~~~   ** ...Air Volume Flow Rate per Watt of Rated Cooling Capacity is also out of bounds at = 2.6842181E-005 m3/s/W\n   **   ~~~   **  During Warmup, Environment=OAK RIDGE ANN CLG 2% CONDNS DB=>MWB, at Simulation time=07/21 00:00 - 00:15\n   **   ~~~   ** CalcCBF: SHR adjusted to achieve valid outlet air properties and the simulation continues.\n   **   ~~~   ** CalcCBF: initial SHR = 0.68700\n   **   ~~~   ** CalcCBF: adjusted SHR = 0.61097\n   ** Warning ** Output:Meter: invalid Key Name=\"HOURLYMETER\" - not found.\n   ** Warning ** Output:Meter: invalid Key Name=\"DISTRICTCOOLING:FACILITY\" - not found.\n   ** Warning ** Output:Meter: invalid Key Name=\"DISTRICTHEATING:FACILITY\" - not found.\n   ** Warning ** Output:Meter:MeterFileOnly requested for \"Electricity:Facility\" (TimeStep), already on \"Output:Meter\". Will report to both eplusout.eso and eplusout.mtr\n   ************* Testing Individual Branch Integrity\n   ************* All Branches passed integrity testing\n   ************* Testing Individual Supply Air Path Integrity\n   ************* All Supply Air Paths passed integrity testing\n   ************* Testing Individual Return Air Path Integrity\n   ************* All Return Air Paths passed integrity testing\n   ************* No node connection errors were found.\n   ************* Beginning Simulation\n   ** Warning ** Processing Monthly Tabular Reports: Variable names not valid for this simulation\n   **   ~~~   ** ...use Output:Diagnostics,DisplayExtraWarnings; to show more details on individual variables.\n   ** Warning ** CalcDoe2DXCoil: Coil:Cooling:DX:TwoStageWithHumidityControlMode=\"ROOFTOP COOLING COIL\" - Air volume flow rate per watt of rated total cooling capacity is out of range at 2.649E-005 m3/s/W.\n   **   ~~~   **  Environment=CUSTOM RUN PERIOD, at Simulation time=08/10 06:45 - 07:00\n   **   ~~~   ** Expected range for VolumeFlowPerRatedTotalCapacity=[2.684E-005--6.713E-005]\n   **   ~~~   ** Possible causes include inconsistent air flow rates in system components,\n   **   ~~~   ** or variable air volume [VAV] system using incorrect coil type.\n   ** Warning ** CalcDoe2DXCoil: Coil:Cooling:DX:TwoStageWithHumidityControlMode \"ROOFTOP COOLING COIL\" - Full load outlet air dry-bulb temperature < 2C. This indicates the possibility of coil frost/freeze. Outlet temperature = 1.99 C.\n   **   ~~~   **  ...Occurrence info = CUSTOM RUN PERIOD, 08/25 08:15 - 08:22\n   **   ~~~   ** ... Possible reasons for low outlet air dry-bulb temperatures are: This DX coil\n   **   ~~~   **    1) may have a low inlet air dry-bulb temperature. Inlet air temperature = 20.937 C.\n   **   ~~~   **    2) may have a low air flow rate per watt of cooling capacity. Check inputs.\n   **   ~~~   **    3) is used as part of a HX assisted cooling coil which uses a high sensible effectiveness. Check inputs.\n   ** Warning ** The resource referenced by LifeCycleCost:UsePriceEscalation= \"U.S. AVG  COMMERCIAL-ELECTRICITY\" has no energy cost. \n   **   ~~~   ** ... It is likely that the wrong resource is used. The resource should match the meter used in Utility:Tariff.\n   ** Warning ** The resource referenced by LifeCycleCost:UsePriceEscalation= \"U.S. AVG  COMMERCIAL-DISTILLATE OIL\" has no energy cost. \n   **   ~~~   ** ... It is likely that the wrong resource is used. The resource should match the meter used in Utility:Tariff.\n   ** Warning ** The resource referenced by LifeCycleCost:UsePriceEscalation= \"U.S. AVG  COMMERCIAL-RESIDUAL OIL\" has no energy cost. \n   **   ~~~   ** ... It is likely that the wrong resource is used. The resource should match the meter used in Utility:Tariff.\n   ** Warning ** The resource referenced by LifeCycleCost:UsePriceEscalation= \"U.S. AVG  COMMERCIAL-NATURAL GAS\" has no energy cost. \n   **   ~~~   ** ... It is likely that the wrong resource is used. The resource should match the meter used in Utility:Tariff.\n   ** Warning ** The resource referenced by LifeCycleCost:UsePriceEscalation= \"U.S. AVG  COMMERCIAL-COAL\" has no energy cost. \n   **   ~~~   ** ... It is likely that the wrong resource is used. The resource should match the meter used in Utility:Tariff.\n   ************* Simulation Error Summary *************\n   ** Warning ** The following Report Variables were requested but not generated -- check.rdd file\n   **   ~~~   ** Either the IDF did not contain these elements, the variable name is misspelled,\n   **   ~~~   ** or the requested variable is an advanced output which requires Output : Diagnostics, DisplayAdvancedReportVariables;\n   ************* Key=*, VarName=COOLING SUPPLY TEMPERATURE, Frequency=Hourly\n   ************* Key=*, VarName=HEATING SUPPLY TEMPERATURE, Frequency=Hourly\n   ************* There are 12 unused schedules in input.\n   ************* There are 50 unused week schedules in input.\n   ************* There are 64 unused day schedules in input.\n   ************* Use Output:Diagnostics,DisplayUnusedSchedules; to see them.\n   *************\n   ************* ===== Recurring Error Summary =====\n   ************* The following recurring error messages occurred.\n   *************\n   *************  ** Warning ** CalcDoe2DXCoil: Coil:Cooling:DX:TwoStageWithHumidityControlMode=\"ROOFTOP COOLING COIL\" - Air volume flow rate per watt of rated total cooling capacity is out of range error continues...\n   *************  **   ~~~   **   This error occurred 56020 total times;\n   *************  **   ~~~   **   during Warmup 0 times;\n   *************  **   ~~~   **   during Sizing 0 times.\n   *************  **   ~~~   **   Max=2.683974E-005  Min=2.204081E-005\n   *************\n   *************  ** Warning ** CalcDoe2DXCoil: Coil:Cooling:DX:TwoStageWithHumidityControlMode=\"ROOFTOP COOLING COIL\" - Full load outlet temperature indicates a possibility of frost/freeze error continues. Outlet air temperature statistics follow:\n   *************  **   ~~~   **   This error occurred 124 total times;\n   *************  **   ~~~   **   during Warmup 0 times;\n   *************  **   ~~~   **   during Sizing 0 times.\n   *************  **   ~~~   **   Max=1.998424  Min=0.84459\n   *************\n   ************* EnergyPlus Warmup Error Summary. During Warmup: 0 Warning; 0 Severe Errors.\n   ************* EnergyPlus Sizing Error Summary. During Sizing: 29 Warning; 0 Severe Errors.\n   ************* EnergyPlus Completed Successfully-- 56189 Warning; 0 Severe Errors; Elapsed Time=00hr 00min  7.85sec\n",
  "file_format_version": "0.0.1",
  "file_paths": [
    "../weather",
    "../seeds",
    "../seed"
  ],
  "hash": "69EFD8BA",
  "measure_paths": [
    "../measures"
  ],
  "name": "condenser fouling 58 percent fault without measure",
  "osa_id": "238947ed-fb40-4d51-9134-f79aa4ddceb1",
  "osd_id": "52b7d2e1-c8a2-4eab-b89c-e450c9c11867",
  "run_directory": "./run",
  "seed_file": "frp_baseline_experiment_specific_controls.osm",
  "started_at": "20180511T145518Z",
  "steps": [
    {
      "arguments": {
        "csv_name": "../../../lib/resources/Master_Condenser_Fouling_58pct.csv"
      },
      "description": "Option 4 Description: For calibration to measured data update selected loads and load schedules to match measured data for specific dates",
      "measure_dir_name": "update_rfp_loads_and_schedules_from_measured_data",
      "name": "high fault schedules",
      "result": {
        "completed_at": "20180511T145520Z",
        "measure_class_name": "UpdateRFPLoadsAndSchedulesFromMeasuredData",
        "measure_display_name": "Update RFP Loads and Schedules from Measured Data",
        "measure_name": "update_rfp_loads_and_schedules_from_measured_data",
        "measure_taxonomy": "Envelope.Form",
        "measure_type": "ModelMeasure",
        "measure_uid": "e53d2697-1e13-4969-8ff2-a444e53d6202",
        "measure_version_id": "bf8789cd-552d-43bf-ae4d-f2029faba4ff",
        "measure_version_modified": "20180319T203512Z",
        "measure_xml_checksum": "9DE29E21",
        "started_at": "20180511T145520Z",
        "stderr": "",
        "stdout": "[OpenStudio.Measure] <0> OSArgumentVector is deprecated, use OpenStudio::Measure::OSArgumentVector instead.\n",
        "step_errors": [],
        "step_files": [],
        "step_final_condition": "13 schedules were altered.",
        "step_info": [
          "Adding rules to WALL_HEATER schedule used by plug loads in two spaces",
          "Adding rules to clone of New_BLDG_EQUIP_SCH_Up named Room 205_elec_equip_sch",
          "Max measured plug load value of 940.0797356174493 is more than 1.02 times the expected value of 10.0W for Room 205. Increasing electric equipment design level to max measured value.",
          "Adding rules to clone of New_BLDG_EQUIP_SCH_Up named Room 203_elec_equip_sch",
          "Max measured plug load value of 478.9592 is more than 1.02 times the expected value of 2.6W for Room 203. Increasing electric equipment design level to max measured value.",
          "Adding rules to clone of New_BLDG_EQUIP_SCH_Up named Room 202_elec_equip_sch",
          "Max measured plug load value of 81.00048 is more than 1.02 times the expected value of 70.0W for Room 202. Increasing electric equipment design level to max measured value.",
          "Adding rules to clone of New_BLDG_EQUIP_SCH_Up named Room 206_elec_equip_sch",
          "Max measured plug load value of 579.5519819653236 is more than 1.02 times the expected value of 7.8W for Room 206. Increasing electric equipment design level to max measured value.",
          "Adding rules to clone of New_BLDG_EQUIP_SCH_Down named Room 104_elec_equip_sch",
          "Max measured plug load value of 556.9275819653237 is more than 1.02 times the expected value of 36.0W for Room 104. Increasing electric equipment design level to max measured value.",
          "Adding rules to clone of New_BLDG_EQUIP_SCH_Up named Room 204_elec_equip_sch",
          "Max measured plug load value of 506.55558196532365 is more than 1.02 times the expected value of 10.0W for Room 204. Increasing electric equipment design level to max measured value.",
          "Adding rules to clone of New_BLDG_EQUIP_SCH_Down named Room 105_elec_equip_sch",
          "Max measured plug load value of 647.6127819653237 is more than 1.02 times the expected value of 63.0W for Room 105. Increasing electric equipment design level to max measured value.",
          "Adding rules to clone of New_BLDG_EQUIP_SCH_Down named Room 106_elec_equip_sch",
          "Adding rules to clone of New_BLDG_EQUIP_SCH_Down named Room 102_elec_equip_sch",
          "Max measured plug load value of 598.9373022703408 is more than 1.02 times the expected value of 350.0W for Room 102. Increasing electric equipment design level to max measured value.",
          "Adding rules to clone of New_BLDG_EQUIP_SCH_Down named Room 103_elec_equip_sch",
          "Max measured plug load value of 385.526 is more than 1.02 times the expected value of 7.7W for Room 103. Increasing electric equipment design level to max measured value.",
          "Adding rules to BLDG_LIGHT_DownSt_SCH schedule used by lights on the first floor.",
          "Adding rules to BLDG_LIGHT_Upst_SCH schedule used by lights on the second floor."
        ],
        "step_initial_condition": "The building started with 23 schedules.",
        "step_result": "Success",
        "step_values": [
          {
            "name": "csv_name",
            "value": "../../../lib/resources/Master_Condenser_Fouling_58pct.csv"
          }
        ],
        "step_warnings": []
      }
    },
    {
      "arguments": {
        "daylightsavings": false,
        "end_date": "2016-9-3",
        "holiday": false,
        "runPeriodName": "custom run period",
        "start_date": "2016-8-10"
      },
      "description": "Option 1 Description: Set Run Period Object",
      "measure_dir_name": "RunPeriod",
      "name": "custom run period",
      "result": {
        "completed_at": "20180511T145521Z",
        "measure_class_name": "RunPeriod",
        "measure_display_name": "Set Run Period Object",
        "measure_name": "run_period",
        "measure_taxonomy": "Whole Building.Space Types",
        "measure_type": "ModelMeasure",
        "measure_uid": "9d5a7fe0-e350-4c8a-835b-34ba73eada1a",
        "measure_version_id": "1c4c8bec-b6f6-42f7-bbef-9dc5ab9d90ad",
        "measure_version_modified": "20171017T174936Z",
        "measure_xml_checksum": "057E8D9D",
        "started_at": "20180511T145521Z",
        "stderr": "",
        "stdout": "[OpenStudio.Measure] <0> OSArgumentVector is deprecated, use OpenStudio::Measure::OSArgumentVector instead.\n",
        "step_errors": [],
        "step_files": [],
        "step_final_condition": "Changed run period.",
        "step_info": [
          "runperiod: OS:RunPeriod,\n  {356653f0-1153-497f-9de0-e414ae8f0f5c}, !- Handle\n  custom run period,                      !- Name\n  8,                                      !- Begin Month\n  10,                                     !- Begin Day of Month\n  9,                                      !- End Month\n  3,                                      !- End Day of Month\n  No,                                     !- Use Weather File Holidays and Special Days\n  No,                                     !- Use Weather File Daylight Saving Period\n  No,                                     !- Apply Weekend Holiday Rule\n  Yes,                                    !- Use Weather File Rain Indicators\n  Yes,                                    !- Use Weather File Snow Indicators\n  1;                                      !- Number of Times Runperiod to be Repeated\n\n"
        ],
        "step_result": "Success",
        "step_values": [
          {
            "name": "runPeriodName",
            "value": "custom run period"
          },
          {
            "name": "start_date",
            "value": "2016-8-10"
          },
          {
            "name": "end_date",
            "value": "2016-9-3"
          },
          {
            "name": "daylightsavings",
            "value": false
          },
          {
            "name": "holiday",
            "value": false
          }
        ],
        "step_warnings": []
      }
    },
    {
      "arguments": {
        "run_period_type": "RunPeriod"
      },
      "description": "Option 1 Description: This is addressing issue with forward translation of OpenStudio Schedule Rulesets to Schedule Week in EnergyPlus. The start day of week for this logic appears to  apply that day of week to January 1st, however when the simulation is runEnergyPlus uses that as the day of the week for the RunPeriod, which for example may be July 25th, not January first. If I just change the start date.",
      "measure_dir_name": "change_run_period_start_day_of_week",
      "name": "Change Start Day of Week",
      "result": {
        "completed_at": "20180511T145525Z",
        "measure_class_name": "ChangeRunPeriodStartDayOfWeek",
        "measure_display_name": "Change RunPeriod Start Day Of Week",
        "measure_name": "change_run_period_start_day_of_week",
        "measure_taxonomy": "Whole Building.Whole Building Schedules",
        "measure_type": "EnergyPlusMeasure",
        "measure_uid": "23862727-2544-4817-b92b-ac901014f545",
        "measure_version_id": "9dcb4e91-add9-4ccb-a436-78f3ca59e0b1",
        "measure_version_modified": "20171025T182354Z",
        "measure_xml_checksum": "9F9F47EF",
        "started_at": "20180511T145525Z",
        "stderr": "",
        "stdout": "[OpenStudio.Measure] <0> OSArgumentVector is deprecated, use OpenStudio::Measure::OSArgumentVector instead.\n",
        "step_errors": [],
        "step_files": [],
        "step_final_condition": "The building finished with 1 run periods.",
        "step_info": [
          " 8/10/2016 is a Wednesday",
          "RunPeriod,\n  custom run period,                      !- Name\n  8,                                      !- Begin Month\n  10,                                     !- Begin Day of Month\n  9,                                      !- End Month\n  3,                                      !- End Day of Month\n  Wednesday,                              !- Day of Week for Start Day\n  No,                                     !- Use Weather File Holidays and Special Days\n  No,                                     !- Use Weather File Daylight Saving Period\n  No,                                     !- Apply Weekend Holiday Rule\n  Yes,                                    !- Use Weather File Rain Indicators\n  Yes,                                    !- Use Weather File Snow Indicators\n  1,                                      !- Number of Times Runperiod to be Repeated\n  ,                                       !- Increment Day of Week on repeat\n  2016;                                   !- Start Year\n\n"
        ],
        "step_initial_condition": "The building started with 1 run periods.",
        "step_result": "Success",
        "step_values": [
          {
            "name": "run_period_type",
            "value": "RunPeriod"
          }
        ],
        "step_warnings": []
      }
    },
    {
      "arguments": {
        "downstream_fraction": 0.119758221206572,
        "upstream_fraction": 0.0121705692534106
      },
      "description": "Option 1 Description: Simulate supply air duct leakage from VAV into Return Plenum.",
      "measure_dir_name": "duct_leakage_through_zone_hvac_air_distribution_unit",
      "name": "duct leakage",
      "result": {
        "completed_at": "20180511T145525Z",
        "measure_class_name": "DuctLeakageThroughZoneHVACAirDistributionUnit",
        "measure_display_name": "Duct Leakage through ZoneHVACAirDistributionUnit",
        "measure_name": "duct_leakage_through_zone_hvac_air_distribution_unit",
        "measure_taxonomy": "HVAC.Distribution",
        "measure_type": "EnergyPlusMeasure",
        "measure_uid": "1bd982b9-ff11-4960-a75e-7421a5a08d47",
        "measure_version_id": "9091f946-fca1-4cc0-b6c9-11591fff0d15",
        "measure_version_modified": "20180405T205437Z",
        "measure_xml_checksum": "CE45555F",
        "started_at": "20180511T145525Z",
        "stderr": "",
        "stdout": "",
        "step_errors": [],
        "step_files": [],
        "step_info": [
          "Setting duct leakge for ADU Room 206 VAV Reheat",
          "Setting duct leakge for ADU Room 205 VAV Reheat",
          "Setting duct leakge for ADU Room 203 VAV Reheat",
          "Setting duct leakge for ADU Room 202 VAV Reheat",
          "Setting duct leakge for ADU Room 204 VAV Reheat",
          "Setting duct leakge for ADU Room 105 VAV Reheat",
          "Setting duct leakge for ADU Room 104 VAV Reheat",
          "Setting duct leakge for ADU Room 103 VAV Reheat",
          "Setting duct leakge for ADU Room 106 VAV Reheat",
          "Setting duct leakge for ADU Room 102 VAV Reheat"
        ],
        "step_initial_condition": "The building started with 10 Air Distribution Unit objects..",
        "step_result": "Success",
        "step_values": [
          {
            "name": "upstream_fraction",
            "value": 0.0121705692534106
          },
          {
            "name": "downstream_fraction",
            "value": 0.119758221206572
          }
        ],
        "step_warnings": []
      }
    },
    {
      "arguments": {
        "EIR_CAa1": -5.9806,
        "EIR_CAa2": 0.9479,
        "EIR_CAa3": 4.3816,
        "EIR_CAa4": -1.0667,
        "EIR_CAa5": 2.9142,
        "EIR_CAa6": 0.090476,
        "Q_CAa1": -2.2162,
        "Q_CAa2": 5.6315,
        "Q_CAa3": -3.1199,
        "Q_CAa4": 0.22492,
        "Q_CAa5": -0.76245,
        "Q_CAa6": -0.072843,
        "__SKIP__": true,
        "bf_para": 0,
        "coil_choice": "* ALL Coil Selected *",
        "end_date": 31,
        "end_month": 12,
        "end_time": 23,
        "fault_lvl": 0.1,
        "max_cond_tmp_uc": 46.1,
        "max_cop_uc": 4.69,
        "max_wb_tmp_uc": 23.9,
        "min_cond_tmp_uc": 18.3,
        "min_cop_uc": 3.74,
        "min_fl": 0.5,
        "min_wb_tmp_uc": 12.8,
        "q_rat": -1,
        "shr_rat": -1,
        "start_date": 1,
        "start_month": 6,
        "start_time": 9,
        "time_constant": 0,
        "vol_rat": -1
      },
      "description": "Condenser fouling occurs when litter, dirt, or dust accumulates on or between the fins of a condenser of an air conditioner located in the outdoor environment. The blockage reduces the airflow across the condenser and increases the condensing temperature in the refrigerant circuit. The elevated temperature increases the pressure difference across the compressor and reduces the equipment efficiency. This measure simulates condenser fouling by modifying the Coil:Cooling:DX:SingleSpeed object in EnergyPlus assigned to the heating and cooling system. The fault intensity (F) for this fault is defined as the ratio of reduction in condenser coil airflow at full load.",
      "measure_dir_name": "CondenserFouling",
      "name": "condenser_fouling",
      "result": {
        "completed_at": "20180511T145525Z",
        "measure_class_name": "CondenserFouling",
        "measure_display_name": "Condenser Fouling",
        "measure_name": "condenser_fouling",
        "measure_taxonomy": "HVAC.Cooling",
        "measure_type": "EnergyPlusMeasure",
        "measure_uid": "7fac3cb7-ed23-454d-ac24-b037d2c8faa4",
        "measure_version_id": "a7fa7516-2c70-480d-8d81-0d82c4dc1fc0",
        "measure_version_modified": "20180315T142944Z",
        "measure_xml_checksum": "CBC45526",
        "started_at": "20180511T145525Z",
        "stderr": "",
        "stdout": "",
        "step_errors": [],
        "step_files": [],
        "step_info": [],
        "step_result": "Skip",
        "step_values": [],
        "step_warnings": []
      }
    },
    {
      "arguments": {
        "air_loops_detail_section": true,
        "annual_overview_section": true,
        "building_summary_section": true,
        "cost_summary_section": true,
        "envelope_section_section": true,
        "exterior_light_section": true,
        "hvac_load_profile": true,
        "interior_lighting_section": true,
        "monthly_overview_section": true,
        "outdoor_air_section": true,
        "plant_loops_detail_section": true,
        "plug_loads_section": true,
        "schedules_overview_section": true,
        "source_energy_section": true,
        "space_type_breakdown_section": true,
        "space_type_details_section": true,
        "utility_bills_rates_section": true,
        "water_use_section": true,
        "zone_condition_section": true,
        "zone_equipment_detail_section": true,
        "zone_summary_section": true
      },
      "description": "Option 1 Description: This measure creates high level tables and charts pulling both from model inputs and EnergyPlus results. It has building level information as well as detail on space types, thermal zones, HVAC systems, envelope characteristics, and economics. Click the heading above a chart to view a table of the chart data.",
      "measure_dir_name": "861c42ba-2105-49e6-b727-9fc3567f4834",
      "name": "OpenStudio Results",
      "result": {
        "completed_at": "20180511T145552Z",
        "measure_class_name": "OpenStudioResults",
        "measure_display_name": "OpenStudio Results",
        "measure_name": "openstudio_results",
        "measure_taxonomy": "Reporting.QAQC",
        "measure_type": "ReportingMeasure",
        "measure_uid": "a25386cd-60e4-46bc-8b11-c755f379d916",
        "measure_version_id": "d255d6a3-d97e-47fc-a19d-59051f5fb8c0",
        "measure_version_modified": "20171027T162624Z",
        "measure_xml_checksum": "557BF06F",
        "started_at": "20180511T145541Z",
        "stderr": "",
        "stdout": "[OpenStudio.Measure] <0> OSArgumentVector is deprecated, use OpenStudio::Measure::OSArgumentVector instead.\n[openstudio.energyplus.SqlFile] <0> Reporting Net Site Energy with 600 hrs\n[openstudio.energyplus.SqlFile] <0> Reporting Net Site Energy with 600 hrs\n[openstudio.energyplus.SqlFile] <0> Reporting Net Site Energy with 600 hrs\n",
        "step_errors": [],
        "step_files": [
          "/Users/dgoldwas/Documents/GitHub/NREL/OpenStudio-fault-models/pat_projects/PAT_FRP_condernser_fouling/temp_data/analysis_238947ed-fb40-4d51-9134-f79aa4ddceb1/data_point_52b7d2e1-c8a2-4eab-b89c-e450c9c11867/run/005_861c42ba-2105-49e6-b727-9fc3567f4834/report.html"
        ],
        "step_final_condition": "Generated report with 21 sections to ./report.html.",
        "step_info": [],
        "step_initial_condition": "Gathering data from EnergyPlus SQL file and OSM model.",
        "step_result": "Success",
        "step_values": [
          {
            "name": "building_summary_section",
            "value": true
          },
          {
            "name": "annual_overview_section",
            "value": true
          },
          {
            "name": "monthly_overview_section",
            "value": true
          },
          {
            "name": "utility_bills_rates_section",
            "value": true
          },
          {
            "name": "envelope_section_section",
            "value": true
          },
          {
            "name": "space_type_breakdown_section",
            "value": true
          },
          {
            "name": "space_type_details_section",
            "value": true
          },
          {
            "name": "interior_lighting_section",
            "value": true
          },
          {
            "name": "plug_loads_section",
            "value": true
          },
          {
            "name": "exterior_light_section",
            "value": true
          },
          {
            "name": "water_use_section",
            "value": true
          },
          {
            "name": "hvac_load_profile",
            "value": true
          },
          {
            "name": "zone_condition_section",
            "value": true
          },
          {
            "name": "zone_summary_section",
            "value": true
          },
          {
            "name": "zone_equipment_detail_section",
            "value": true
          },
          {
            "name": "air_loops_detail_section",
            "value": true
          },
          {
            "name": "plant_loops_detail_section",
            "value": true
          },
          {
            "name": "outdoor_air_section",
            "value": true
          },
          {
            "name": "cost_summary_section",
            "value": true
          },
          {
            "name": "source_energy_section",
            "value": true
          },
          {
            "name": "schedules_overview_section",
            "value": true
          },
          {
            "display_name": "FRP_RTU",
            "name": "building_name",
            "value": "building_name"
          },
          {
            "name": "net_site_energy",
            "units": "kBtu",
            "value": 27799.476138789596
          },
          {
            "name": "total_building_area",
            "units": "ft^2",
            "value": 3528.517473701614
          },
          {
            "name": "eui",
            "units": "kBtu/ft^2",
            "value": 7.878514516643834
          },
          {
            "name": "unmet_hours_during_heating",
            "units": "hr",
            "value": 24.75
          },
          {
            "name": "unmet_hours_during_cooling",
            "units": "hr",
            "value": 0
          },
          {
            "name": "unmet_hours_during_occupied_heating",
            "units": "hr",
            "value": 0
          },
          {
            "name": "unmet_hours_during_occupied_cooling",
            "units": "hr",
            "value": 0
          },
          {
            "name": "unmet_hours_tolerance_heating",
            "units": "F",
            "value": 0.36
          },
          {
            "name": "unmet_hours_tolerance_cooling",
            "units": "F",
            "value": 0.36
          },
          {
            "name": "end_use_heating",
            "units": "kBtu",
            "value": 4511.60949269139
          },
          {
            "name": "end_use_cooling",
            "units": "kBtu",
            "value": 10388.075638633958
          },
          {
            "name": "end_use_interior_lighting",
            "units": "kBtu",
            "value": 3232.056380268412
          },
          {
            "name": "end_use_exterior_lighting",
            "units": "kBtu",
            "value": 0
          },
          {
            "name": "end_use_interior_equipment",
            "units": "kBtu",
            "value": 6994.890347912281
          },
          {
            "name": "end_use_exterior_equipment",
            "units": "kBtu",
            "value": 0
          },
          {
            "name": "end_use_fans",
            "units": "kBtu",
            "value": 2672.844279283555
          },
          {
            "name": "end_use_pumps",
            "units": "kBtu",
            "value": 0
          },
          {
            "name": "end_use_heat_rejection",
            "units": "kBtu",
            "value": 0
          },
          {
            "name": "end_use_humidification",
            "units": "kBtu",
            "value": 0
          },
          {
            "name": "end_use_heat_recovery",
            "units": "kBtu",
            "value": 0
          },
          {
            "name": "end_use_water_systems",
            "units": "kBtu",
            "value": 0
          },
          {
            "name": "end_use_refrigeration",
            "units": "kBtu",
            "value": 0
          },
          {
            "name": "end_use_generators",
            "units": "kBtu",
            "value": 0
          },
          {
            "name": "fuel_electricity",
            "units": "kBtu",
            "value": 27799.476138789596
          },
          {
            "name": "fuel_natural_gas",
            "units": "kBtu",
            "value": 0
          },
          {
            "name": "fuel_additional_fuel",
            "units": "kBtu",
            "value": 0
          },
          {
            "name": "fuel_district_cooling",
            "units": "kBtu",
            "value": 0
          },
          {
            "name": "fuel_district_heating",
            "units": "kBtu",
            "value": 0
          },
          {
            "name": "end_use_electricity_heating",
            "units": "kWh",
            "value": 1322.2222222222222
          },
          {
            "name": "end_use_electricity_cooling",
            "units": "kWh",
            "value": 3044.4444444444443
          },
          {
            "name": "end_use_electricity_interior_lighting",
            "units": "kWh",
            "value": 947.2222222222223
          },
          {
            "name": "end_use_electricity_exterior_lighting",
            "units": "kWh",
            "value": 0
          },
          {
            "name": "end_use_electricity_interior_equipment",
            "units": "kWh",
            "value": 2050
          },
          {
            "name": "end_use_electricity_exterior_equipment",
            "units": "kWh",
            "value": 0
          },
          {
            "name": "end_use_electricity_fans",
            "units": "kWh",
            "value": 783.3333333333334
          },
          {
            "name": "end_use_electricity_pumps",
            "units": "kWh",
            "value": 0
          },
          {
            "name": "end_use_electricity_heat_rejection",
            "units": "kWh",
            "value": 0
          },
          {
            "name": "end_use_electricity_humidification",
            "units": "kWh",
            "value": 0
          },
          {
            "name": "end_use_electricity_heat_recovery",
            "units": "kWh",
            "value": 0
          },
          {
            "name": "end_use_electricity_water_systems",
            "units": "kWh",
            "value": 0
          },
          {
            "name": "end_use_electricity_refrigeration",
            "units": "kWh",
            "value": 0
          },
          {
            "name": "end_use_electricity_generators",
            "units": "kWh",
            "value": 0
          },
          {
            "name": "end_use_natural_gas_heating",
            "units": "therms",
            "value": 0
          },
          {
            "name": "end_use_natural_gas_cooling",
            "units": "therms",
            "value": 0
          },
          {
            "name": "end_use_natural_gas_interior_lighting",
            "units": "therms",
            "value": 0
          },
          {
            "name": "end_use_natural_gas_exterior_lighting",
            "units": "therms",
            "value": 0
          },
          {
            "name": "end_use_natural_gas_interior_equipment",
            "units": "therms",
            "value": 0
          },
          {
            "name": "end_use_natural_gas_exterior_equipment",
            "units": "therms",
            "value": 0
          },
          {
            "name": "end_use_natural_gas_fans",
            "units": "therms",
            "value": 0
          },
          {
            "name": "end_use_natural_gas_pumps",
            "units": "therms",
            "value": 0
          },
          {
            "name": "end_use_natural_gas_heat_rejection",
            "units": "therms",
            "value": 0
          },
          {
            "name": "end_use_natural_gas_humidification",
            "units": "therms",
            "value": 0
          },
          {
            "name": "end_use_natural_gas_heat_recovery",
            "units": "therms",
            "value": 0
          },
          {
            "name": "end_use_natural_gas_water_systems",
            "units": "therms",
            "value": 0
          },
          {
            "name": "end_use_natural_gas_refrigeration",
            "units": "therms",
            "value": 0
          },
          {
            "name": "end_use_natural_gas_generators",
            "units": "therms",
            "value": 0
          },
          {
            "name": "electricity_heating_ip",
            "units": "kWh",
            "value": 1322.238888888889
          },
          {
            "name": "electricity_cooling_ip",
            "units": "kWh",
            "value": 3044.803611111111
          },
          {
            "name": "electricity_interior_lighting_ip",
            "units": "kWh",
            "value": 946.3813888888889
          },
          {
            "name": "electricity_exterior_lighting_ip",
            "units": "kWh",
            "value": 0
          },
          {
            "name": "electricity_interior_equipment_ip",
            "units": "kWh",
            "value": 2048.6930555555555
          },
          {
            "name": "electricity_exterior_equipment_ip",
            "units": "kWh",
            "value": 0
          },
          {
            "name": "electricity_fans_ip",
            "units": "kWh",
            "value": 783.9425
          },
          {
            "name": "electricity_pumps_ip",
            "units": "kWh",
            "value": 0
          },
          {
            "name": "electricity_heat_rejection_ip",
            "units": "kWh",
            "value": 0
          },
          {
            "name": "electricity_humidification_ip",
            "units": "kWh",
            "value": 0
          },
          {
            "name": "electricity_heat_recovery_ip",
            "units": "kWh",
            "value": 0
          },
          {
            "name": "electricity_water_systems_ip",
            "units": "kWh",
            "value": 0
          },
          {
            "name": "electricity_refrigeration_ip",
            "units": "kWh",
            "value": 0
          },
          {
            "name": "electricity_generators_ip",
            "units": "kWh",
            "value": 0
          },
          {
            "name": "electricity_ip",
            "units": "kWh",
            "value": 8146.059444444444
          },
          {
            "name": "natural_gas_heating_ip",
            "units": "MBtu",
            "value": 0
          },
          {
            "name": "natural_gas_cooling_ip",
            "units": "MBtu",
            "value": 0
          },
          {
            "name": "natural_gas_interior_lighting_ip",
            "units": "MBtu",
            "value": 0
          },
          {
            "name": "natural_gas_exterior_lighting_ip",
            "units": "MBtu",
            "value": 0
          },
          {
            "name": "natural_gas_interior_equipment_ip",
            "units": "MBtu",
            "value": 0
          },
          {
            "name": "natural_gas_exterior_equipment_ip",
            "units": "MBtu",
            "value": 0
          },
          {
            "name": "natural_gas_fans_ip",
            "units": "MBtu",
            "value": 0
          },
          {
            "name": "natural_gas_pumps_ip",
            "units": "MBtu",
            "value": 0
          },
          {
            "name": "natural_gas_heat_rejection_ip",
            "units": "MBtu",
            "value": 0
          },
          {
            "name": "natural_gas_humidification_ip",
            "units": "MBtu",
            "value": 0
          },
          {
            "name": "natural_gas_heat_recovery_ip",
            "units": "MBtu",
            "value": 0
          },
          {
            "name": "natural_gas_water_systems_ip",
            "units": "MBtu",
            "value": 0
          },
          {
            "name": "natural_gas_refrigeration_ip",
            "units": "MBtu",
            "value": 0
          },
          {
            "name": "natural_gas_generators_ip",
            "units": "MBtu",
            "value": 0
          },
          {
            "name": "natural_gas_ip",
            "units": "MBtu",
            "value": 0
          },
          {
            "name": "additional_fuel_heating_ip",
            "units": "MBtu",
            "value": 0
          },
          {
            "name": "additional_fuel_cooling_ip",
            "units": "MBtu",
            "value": 0
          },
          {
            "name": "additional_fuel_interior_lighting_ip",
            "units": "MBtu",
            "value": 0
          },
          {
            "name": "additional_fuel_exterior_lighting_ip",
            "units": "MBtu",
            "value": 0
          },
          {
            "name": "additional_fuel_interior_equipment_ip",
            "units": "MBtu",
            "value": 0
          },
          {
            "name": "additional_fuel_exterior_equipment_ip",
            "units": "MBtu",
            "value": 0
          },
          {
            "name": "additional_fuel_fans_ip",
            "units": "MBtu",
            "value": 0
          },
          {
            "name": "additional_fuel_pumps_ip",
            "units": "MBtu",
            "value": 0
          },
          {
            "name": "additional_fuel_heat_rejection_ip",
            "units": "MBtu",
            "value": 0
          },
          {
            "name": "additional_fuel_humidification_ip",
            "units": "MBtu",
            "value": 0
          },
          {
            "name": "additional_fuel_heat_recovery_ip",
            "units": "MBtu",
            "value": 0
          },
          {
            "name": "additional_fuel_water_systems_ip",
            "units": "MBtu",
            "value": 0
          },
          {
            "name": "additional_fuel_refrigeration_ip",
            "units": "MBtu",
            "value": 0
          },
          {
            "name": "additional_fuel_generators_ip",
            "units": "MBtu",
            "value": 0
          },
          {
            "name": "additional_fuel_ip",
            "units": "MBtu",
            "value": 0
          },
          {
            "name": "district_cooling_heating_ip",
            "units": "MBtu",
            "value": 0
          },
          {
            "name": "district_cooling_cooling_ip",
            "units": "MBtu",
            "value": 0
          },
          {
            "name": "district_cooling_interior_lighting_ip",
            "units": "MBtu",
            "value": 0
          },
          {
            "name": "district_cooling_exterior_lighting_ip",
            "units": "MBtu",
            "value": 0
          },
          {
            "name": "district_cooling_interior_equipment_ip",
            "units": "MBtu",
            "value": 0
          },
          {
            "name": "district_cooling_exterior_equipment_ip",
            "units": "MBtu",
            "value": 0
          },
          {
            "name": "district_cooling_fans_ip",
            "units": "MBtu",
            "value": 0
          },
          {
            "name": "district_cooling_pumps_ip",
            "units": "MBtu",
            "value": 0
          },
          {
            "name": "district_cooling_heat_rejection_ip",
            "units": "MBtu",
            "value": 0
          },
          {
            "name": "district_cooling_humidification_ip",
            "units": "MBtu",
            "value": 0
          },
          {
            "name": "district_cooling_heat_recovery_ip",
            "units": "MBtu",
            "value": 0
          },
          {
            "name": "district_cooling_water_systems_ip",
            "units": "MBtu",
            "value": 0
          },
          {
            "name": "district_cooling_refrigeration_ip",
            "units": "MBtu",
            "value": 0
          },
          {
            "name": "district_cooling_generators_ip",
            "units": "MBtu",
            "value": 0
          },
          {
            "name": "district_cooling_ip",
            "units": "MBtu",
            "value": 0
          },
          {
            "name": "district_heating_heating_ip",
            "units": "MBtu",
            "value": 0
          },
          {
            "name": "district_heating_cooling_ip",
            "units": "MBtu",
            "value": 0
          },
          {
            "name": "district_heating_interior_lighting_ip",
            "units": "MBtu",
            "value": 0
          },
          {
            "name": "district_heating_exterior_lighting_ip",
            "units": "MBtu",
            "value": 0
          },
          {
            "name": "district_heating_interior_equipment_ip",
            "units": "MBtu",
            "value": 0
          },
          {
            "name": "district_heating_exterior_equipment_ip",
            "units": "MBtu",
            "value": 0
          },
          {
            "name": "district_heating_fans_ip",
            "units": "MBtu",
            "value": 0
          },
          {
            "name": "district_heating_pumps_ip",
            "units": "MBtu",
            "value": 0
          },
          {
            "name": "district_heating_heat_rejection_ip",
            "units": "MBtu",
            "value": 0
          },
          {
            "name": "district_heating_humidification_ip",
            "units": "MBtu",
            "value": 0
          },
          {
            "name": "district_heating_heat_recovery_ip",
            "units": "MBtu",
            "value": 0
          },
          {
            "name": "district_heating_water_systems_ip",
            "units": "MBtu",
            "value": 0
          },
          {
            "name": "district_heating_refrigeration_ip",
            "units": "MBtu",
            "value": 0
          },
          {
            "name": "district_heating_generators_ip",
            "units": "MBtu",
            "value": 0
          },
          {
            "name": "district_heating_ip",
            "units": "MBtu",
            "value": 0
          },
          {
            "name": "water_heating_ip",
            "units": "MBtu",
            "value": 0
          },
          {
            "name": "water_cooling_ip",
            "units": "MBtu",
            "value": 0
          },
          {
            "name": "water_interior_lighting_ip",
            "units": "MBtu",
            "value": 0
          },
          {
            "name": "water_exterior_lighting_ip",
            "units": "MBtu",
            "value": 0
          },
          {
            "name": "water_interior_equipment_ip",
            "units": "MBtu",
            "value": 0
          },
          {
            "name": "water_exterior_equipment_ip",
            "units": "MBtu",
            "value": 0
          },
          {
            "name": "water_fans_ip",
            "units": "MBtu",
            "value": 0
          },
          {
            "name": "water_pumps_ip",
            "units": "MBtu",
            "value": 0
          },
          {
            "name": "water_heat_rejection_ip",
            "units": "MBtu",
            "value": 0
          },
          {
            "name": "water_humidification_ip",
            "units": "MBtu",
            "value": 0
          },
          {
            "name": "water_heat_recovery_ip",
            "units": "MBtu",
            "value": 0
          },
          {
            "name": "water_water_systems_ip",
            "units": "MBtu",
            "value": 0
          },
          {
            "name": "water_refrigeration_ip",
            "units": "MBtu",
            "value": 0
          },
          {
            "name": "water_generators_ip",
            "units": "MBtu",
            "value": 0
          },
          {
            "name": "water_ip",
            "units": "MBtu",
            "value": 0
          },
          {
            "name": "_2_frp_ext_wall_adj_exterior_wall_insulation",
            "units": "ft^2",
            "value": 2540.3204636920386
          },
          {
            "name": "_2_frp_roof_adj_exterior_wall_insulation",
            "units": "ft^2",
            "value": 1764
          },
          {
            "name": "hybrid_spray_foam_in_adj_exterior_wall_insulation",
            "units": "ft^2",
            "value": 408.00000000000006
          },
          {
            "name": "rigid_foam_board_in_adj_exterior_wall_insulation",
            "units": "ft^2",
            "value": 436.00000000000006
          },
          {
            "name": "door",
            "units": "ft^2",
            "value": 68.44444444444441
          },
          {
            "name": "windows_double",
            "units": "ft^2",
            "value": 1140.0006211723537
          },
          {
            "name": "gross_window_wall_ratio",
            "units": "%",
            "value": 26.31
          },
          {
            "name": "gross_window_wall_ratio_conditioned",
            "units": "%",
            "value": 26.34
          },
          {
            "name": "skylight_roof_ratio",
            "units": "%",
            "value": 0
          },
          {
            "name": "space_type_plenum_space_type",
            "units": "ft^2",
            "value": 0
          },
          {
            "name": "space_type_primary_entry",
            "units": "ft^2",
            "value": 171.63888888888897
          },
          {
            "name": "space_type_no_space_type",
            "units": "ft^2",
            "value": 3356.858705161855
          },
          {
            "name": "exterior_lighting_total_power",
            "units": "W",
            "value": 0
          },
          {
            "name": "exterior_lighting_total_consumption",
            "units": "kWh",
            "value": 8147.222222222223
          },
          {
            "name": "inflation_approach",
            "value": "Constant Dollar"
          },
          {
            "name": "analysis_length",
            "units": "yrs",
            "value": 25
          },
          {
            "name": "annual_peak_electric_demand",
            "units": "kW",
            "value": 47.501129999999996
          },
          {
            "name": "first_year_capital_cost",
            "units": "$",
            "value": 0
          },
          {
            "name": "annual_utility_cost",
            "units": "$",
            "value": 0
          },
          {
            "name": "total_lifecycle_cost",
            "units": "$",
            "value": 0
          }
        ],
        "step_warnings": []
      }
    },
    {
      "arguments": {
        "add_first_zero_for_plots": false,
        "add_last_zero_for_plots": false,
        "algorithm_download": true,
        "convert_data": "F to C",
        "csv_name": "../../../lib/resources/Master_Condenser_Fouling_58pct.csv",
        "csv_time_header": "TIMESTAMP",
        "csv_var": "T_Sup_tot_Avg",
        "csv_var_dn": "T_Sup_tot_Avg",
        "environment_period": "custom run period",
        "find_avail": true,
        "key_value": "ROOFTOP SUPPLY FAN OUTLET",
        "norm": 1,
        "plot_flag": true,
        "plot_name": "RTU Exit",
        "reporting_frequency": "Timestep",
        "scale": 1,
        "seconds": false,
        "timeseries_name": "System Node Temperature",
        "verbose_messages": false,
        "warning_messages": true,
        "year": true
      },
      "description": "Option 3 Description: Creates Objective Function from Timeseries Data",
      "measure_dir_name": "TimeseriesObjectiveFunction",
      "name": "high fault RTU exit",
      "result": {
        "completed_at": "20180511T145552Z",
        "measure_class_name": "TimeseriesObjectiveFunction",
        "measure_display_name": "TimeSeries Objective Function",
        "measure_name": "timeseries_objective_function",
        "measure_taxonomy": "Reporting.QAQC",
        "measure_type": "ReportingMeasure",
        "measure_uid": "6804217d-4737-45f3-82df-b81393c29ce3",
        "measure_version_id": "d41b5fec-0640-4337-965c-e1515b34d80e",
        "measure_version_modified": "20180322T191228Z",
        "measure_xml_checksum": "FFE04372",
        "started_at": "20180511T145552Z",
        "stderr": "",
        "stdout": "[OpenStudio.Measure] <0> OSArgumentVector is deprecated, use OpenStudio::Measure::OSArgumentVector instead.\n",
        "step_errors": [],
        "step_files": [
          "/Users/dgoldwas/Documents/GitHub/NREL/OpenStudio-fault-models/pat_projects/PAT_FRP_condernser_fouling/temp_data/analysis_238947ed-fb40-4d51-9134-f79aa4ddceb1/data_point_52b7d2e1-c8a2-4eab-b89c-e450c9c11867/run/006_TimeseriesObjectiveFunction/allseries_T_Sup_tot_Avg.json",
          "/Users/dgoldwas/Documents/GitHub/NREL/OpenStudio-fault-models/pat_projects/PAT_FRP_condernser_fouling/temp_data/analysis_238947ed-fb40-4d51-9134-f79aa4ddceb1/data_point_52b7d2e1-c8a2-4eab-b89c-e450c9c11867/run/006_TimeseriesObjectiveFunction/report_RTU Exit.html",
          "/Users/dgoldwas/Documents/GitHub/NREL/OpenStudio-fault-models/pat_projects/PAT_FRP_condernser_fouling/temp_data/analysis_238947ed-fb40-4d51-9134-f79aa4ddceb1/data_point_52b7d2e1-c8a2-4eab-b89c-e450c9c11867/run/006_TimeseriesObjectiveFunction/timeseries_T_Sup_tot_Avg.json",
          "/Users/dgoldwas/Documents/GitHub/NREL/OpenStudio-fault-models/pat_projects/PAT_FRP_condernser_fouling/temp_data/analysis_238947ed-fb40-4d51-9134-f79aa4ddceb1/data_point_52b7d2e1-c8a2-4eab-b89c-e450c9c11867/run/006_TimeseriesObjectiveFunction/timeseriesRTU Exit.csv"
        ],
        "step_info": [
          "csv_name: ../../../lib/resources/Master_Condenser_Fouling_58pct.csv",
          "environment_period: custom run period",
          "environment_periods: [\"custom run period\"]",
          "map: {\"T_Sup_tot_Avg\"=>{:key=>\"ROOFTOP SUPPLY FAN OUTLET\", :var=>\"System Node Temperature\", :index=>0}}",
          "",
          "available timeseries: [\"Air System DX Cooling Coil Electric Energy\", \"Air System DX Heating Coil Electric Energy\", \"Air System Electric Energy\", \"Air System Gas Energy\", \"Cooling Coil Electric Energy\", \"Cooling Coil Total Cooling Rate\", \"Cooling:Electricity\", \"Cooling:EnergyTransfer\", \"Electricity:Facility\", \"Fan Electric Energy\", \"Fans:Electricity\", \"Gas:Facility\", \"General:InteriorEquipment:Electricity\", \"Heating Coil Electric Energy\", \"Heating:Electricity\", \"Heating:EnergyTransfer\", \"Heating:Gas\", \"InteriorEquipment:Electricity\", \"InteriorLights:Electricity\", \"Site Outdoor Air Drybulb Temperature\", \"System Node Current Density Volume Flow Rate\", \"System Node Relative Humidity\", \"System Node Setpoint Temperature\", \"System Node Standard Density Volume Flow Rate\", \"System Node Temperature\", \"Zone Air Relative Humidity\", \"Zone Air System Sensible Cooling Rate\", \"Zone Air System Sensible Heating Rate\", \"Zone Air Temperature\", \"Zone Mean Air Temperature\"]",
          "",
          "available EnvPeriod: CUSTOM RUN PERIOD, available ReportingFrequencies: [\"Daily\", \"Hourly\", \"Monthly\", \"Zone Timestep\"]",
          "available variable names: [\"Electricity:Facility\", \"Gas:Facility\", \"Zone Air Relative Humidity\"]",
          "variable names: Electricity:Facility",
          "available key value: [\"\"]",
          "variable names: Gas:Facility",
          "available key value: [\"\"]",
          "variable names: Zone Air Relative Humidity",
          "available key value: [\"1F PLENUM\", \"2F PLENUM\", \"ROOM 101\", \"ROOM 102\", \"ROOM 103\", \"ROOM 104\", \"ROOM 105\", \"ROOM 106\", \"ROOM 201\", \"ROOM 202\", \"ROOM 203\", \"ROOM 204\", \"ROOM 205\", \"ROOM 206\"]",
          "available variable names: [\"Air System DX Cooling Coil Electric Energy\", \"Air System DX Heating Coil Electric Energy\", \"Air System Electric Energy\", \"Air System Gas Energy\", \"Cooling:Electricity\", \"Cooling:EnergyTransfer\", \"Electricity:Facility\", \"Fan Electric Energy\", \"Fans:Electricity\", \"General:InteriorEquipment:Electricity\", \"Heating Coil Electric Energy\", \"Heating:Electricity\", \"Heating:EnergyTransfer\", \"Heating:Gas\", \"InteriorLights:Electricity\", \"Site Outdoor Air Drybulb Temperature\", \"System Node Current Density Volume Flow Rate\", \"System Node Relative Humidity\", \"System Node Setpoint Temperature\", \"System Node Temperature\", \"Zone Air Relative Humidity\", \"Zone Air System Sensible Cooling Rate\", \"Zone Air System Sensible Heating Rate\", \"Zone Air Temperature\", \"Zone Mean Air Temperature\"]",
          "variable names: Air System DX Cooling Coil Electric Energy",
          "available key value: [\"ROOFTOP\"]",
          "variable names: Air System DX Heating Coil Electric Energy",
          "available key value: [\"ROOFTOP\"]",
          "variable names: Air System Electric Energy",
          "available key value: [\"ROOFTOP\"]",
          "variable names: Air System Gas Energy",
          "available key value: [\"ROOFTOP\"]",
          "variable names: Cooling:Electricity",
          "available key value: [\"\"]",
          "variable names: Cooling:EnergyTransfer",
          "available key value: [\"\"]",
          "variable names: Electricity:Facility",
          "available key value: [\"\"]",
          "variable names: Fan Electric Energy",
          "available key value: [\"ROOFTOP SUPPLY FAN\"]",
          "variable names: Fans:Electricity",
          "available key value: [\"\"]",
          "variable names: General:InteriorEquipment:Electricity",
          "available key value: [\"\"]",
          "variable names: Heating Coil Electric Energy",
          "available key value: [\"ROOM 102 REHEAT COIL\", \"ROOM 103 REHEAT COIL\", \"ROOM 104 REHEAT COIL\", \"ROOM 105 REHEAT COIL\", \"ROOM 106 REHEAT COIL\", \"ROOM 202 REHEAT COIL\", \"ROOM 203 REHEAT COIL\", \"ROOM 204 REHEAT COIL\", \"ROOM 205 REHEAT COIL\", \"ROOM 206 REHEAT COIL\"]",
          "variable names: Heating:Electricity",
          "available key value: [\"\"]",
          "variable names: Heating:EnergyTransfer",
          "available key value: [\"\"]",
          "variable names: Heating:Gas",
          "available key value: [\"\"]",
          "variable names: InteriorLights:Electricity",
          "available key value: [\"\"]",
          "variable names: Site Outdoor Air Drybulb Temperature",
          "available key value: [\"Environment\"]",
          "variable names: System Node Current Density Volume Flow Rate",
          "available key value: [\"ROOFTOP MIXED AIR OUTLET\", \"ROOFTOP SUPPLY FAN OUTLET\", \"ROOM 102 SUPPLY INLET\", \"ROOM 103 SUPPLY INLET\", \"ROOM 104 SUPPLY INLET\", \"ROOM 105 SUPPLY INLET\", \"ROOM 106 SUPPLY INLET\", \"ROOM 202 SUPPLY INLET\", \"ROOM 203 SUPPLY INLET\", \"ROOM 204 SUPPLY INLET\", \"ROOM 205 SUPPLY INLET\", \"ROOM 206 SUPPLY INLET\"]",
          "variable names: System Node Relative Humidity",
          "available key value: [\"ROOM 102 SUPPLY INLET\", \"ROOM 103 SUPPLY INLET\", \"ROOM 104 SUPPLY INLET\", \"ROOM 105 SUPPLY INLET\", \"ROOM 106 SUPPLY INLET\", \"ROOM 202 SUPPLY INLET\", \"ROOM 203 SUPPLY INLET\", \"ROOM 204 SUPPLY INLET\", \"ROOM 205 SUPPLY INLET\", \"ROOM 206 SUPPLY INLET\"]",
          "variable names: System Node Setpoint Temperature",
          "available key value: [\"ROOFTOP SUPPLY FAN OUTLET\"]",
          "variable names: System Node Temperature",
          "available key value: [\"ROOFTOP HEATING COIL OUTLET\", \"ROOFTOP MIXED AIR OUTLET\", \"ROOFTOP SUPPLY FAN OUTLET\", \"ROOM 102 SUPPLY INLET\", \"ROOM 103 SUPPLY INLET\", \"ROOM 104 SUPPLY INLET\", \"ROOM 105 SUPPLY INLET\", \"ROOM 106 SUPPLY INLET\", \"ROOM 202 SUPPLY INLET\", \"ROOM 203 SUPPLY INLET\", \"ROOM 204 SUPPLY INLET\", \"ROOM 205 SUPPLY INLET\", \"ROOM 206 SUPPLY INLET\"]",
          "variable names: Zone Air Relative Humidity",
          "available key value: [\"1F PLENUM\", \"2F PLENUM\", \"ROOM 101\", \"ROOM 102\", \"ROOM 103\", \"ROOM 104\", \"ROOM 105\", \"ROOM 106\", \"ROOM 201\", \"ROOM 202\", \"ROOM 203\", \"ROOM 204\", \"ROOM 205\", \"ROOM 206\"]",
          "variable names: Zone Air System Sensible Cooling Rate",
          "available key value: [\"1F PLENUM\", \"2F PLENUM\", \"ROOM 101\", \"ROOM 102\", \"ROOM 103\", \"ROOM 104\", \"ROOM 105\", \"ROOM 106\", \"ROOM 201\", \"ROOM 202\", \"ROOM 203\", \"ROOM 204\", \"ROOM 205\", \"ROOM 206\"]",
          "variable names: Zone Air System Sensible Heating Rate",
          "available key value: [\"1F PLENUM\", \"2F PLENUM\", \"ROOM 101\", \"ROOM 102\", \"ROOM 103\", \"ROOM 104\", \"ROOM 105\", \"ROOM 106\", \"ROOM 201\", \"ROOM 202\", \"ROOM 203\", \"ROOM 204\", \"ROOM 205\", \"ROOM 206\"]",
          "variable names: Zone Air Temperature",
          "available key value: [\"1F PLENUM\", \"2F PLENUM\", \"ROOM 101\", \"ROOM 102\", \"ROOM 103\", \"ROOM 104\", \"ROOM 105\", \"ROOM 106\", \"ROOM 201\", \"ROOM 202\", \"ROOM 203\", \"ROOM 204\", \"ROOM 205\", \"ROOM 206\"]",
          "variable names: Zone Mean Air Temperature",
          "available key value: [\"1F PLENUM\", \"2F PLENUM\", \"ROOM 101\", \"ROOM 102\", \"ROOM 103\", \"ROOM 104\", \"ROOM 105\", \"ROOM 106\", \"ROOM 201\", \"ROOM 202\", \"ROOM 203\", \"ROOM 204\", \"ROOM 205\", \"ROOM 206\"]",
          "available variable names: [\"Site Outdoor Air Drybulb Temperature\"]",
          "variable names: Site Outdoor Air Drybulb Temperature",
          "available key value: [\"Environment\"]",
          "available variable names: [\"Cooling Coil Electric Energy\", \"Cooling Coil Total Cooling Rate\", \"Electricity:Facility\", \"Fan Electric Energy\", \"Gas:Facility\", \"Heating:Electricity\", \"InteriorEquipment:Electricity\", \"InteriorLights:Electricity\", \"Site Outdoor Air Drybulb Temperature\", \"System Node Standard Density Volume Flow Rate\", \"System Node Temperature\"]",
          "variable names: Cooling Coil Electric Energy",
          "available key value: [\"ROOFTOP COOLING COIL\"]",
          "variable names: Cooling Coil Total Cooling Rate",
          "available key value: [\"ROOFTOP COOLING COIL\"]",
          "variable names: Electricity:Facility",
          "available key value: [\"\"]",
          "variable names: Fan Electric Energy",
          "available key value: [\"ROOFTOP SUPPLY FAN\"]",
          "variable names: Gas:Facility",
          "available key value: [\"\"]",
          "variable names: Heating:Electricity",
          "available key value: [\"\"]",
          "variable names: InteriorEquipment:Electricity",
          "available key value: [\"\"]",
          "variable names: InteriorLights:Electricity",
          "available key value: [\"\"]",
          "variable names: Site Outdoor Air Drybulb Temperature",
          "available key value: [\"Environment\"]",
          "variable names: System Node Standard Density Volume Flow Rate",
          "available key value: [\"ROOFTOP SUPPLY FAN OUTLET\"]",
          "variable names: System Node Temperature",
          "available key value: [\"ROOFTOP MIXED AIR OUTLET\", \"ROOFTOP SUPPLY FAN OUTLET\"]",
          "year: true",
          "seconds: false",
          "CSV Time format is correct: 8/29/17 0:00 mm:dd:yy hh:mm",
          "Begin timeseries parsing",
          "timezone = -5.0",
          "timezone = -05:00",
          "hdr is: T_Sup_tot_Avg",
          "csv_var is: T_Sup_tot_Avg",
          "var: System Node Temperature",
          "key: ROOFTOP SUPPLY FAN OUTLET",
          "sqlcall: custom run period,Timestep,System Node Temperature,ROOFTOP SUPPLY FAN OUTLET",
          "Saving timeseries_T_Sup_tot_Avg.json",
          "Copying timeseries_T_Sup_tot_Avg.json to downloads directory",
          "start plotting"
        ],
        "step_result": "Success",
        "step_values": [
          {
            "name": "csv_name",
            "value": "../../../lib/resources/Master_Condenser_Fouling_58pct.csv"
          },
          {
            "name": "csv_time_header",
            "value": "TIMESTAMP"
          },
          {
            "name": "csv_var",
            "value": "T_Sup_tot_Avg"
          },
          {
            "name": "convert_data",
            "value": "F to C"
          },
          {
            "name": "csv_var_dn",
            "value": "T_Sup_tot_Avg"
          },
          {
            "name": "year",
            "value": true
          },
          {
            "name": "seconds",
            "value": false
          },
          {
            "name": "key_value",
            "value": "ROOFTOP SUPPLY FAN OUTLET"
          },
          {
            "name": "timeseries_name",
            "value": "System Node Temperature"
          },
          {
            "name": "reporting_frequency",
            "value": "Timestep"
          },
          {
            "name": "environment_period",
            "value": "custom run period"
          },
          {
            "name": "norm",
            "value": 1
          },
          {
            "name": "scale",
            "value": 1
          },
          {
            "name": "find_avail",
            "value": true
          },
          {
            "name": "algorithm_download",
            "value": true
          },
          {
            "name": "plot_flag",
            "value": true
          },
          {
            "name": "plot_name",
            "value": "RTU Exit"
          },
          {
            "name": "verbose_messages",
            "value": false
          },
          {
            "name": "warning_messages",
            "value": true
          },
          {
            "name": "add_first_zero_for_plots",
            "value": false
          },
          {
            "name": "add_last_zero_for_plots",
            "value": false
          },
          {
            "name": "diff",
            "units": "",
            "value": 72.66009465792752
          },
          {
            "name": "simdata",
            "units": "",
            "value": 782.222455054328
          },
          {
            "name": "csvdata",
            "units": "",
            "value": 815.9763840000002
          },
          {
            "name": "cvrmse",
            "units": "",
            "value": 15.131092414840332
          },
          {
            "name": "nmbe",
            "units": "",
            "value": 4.136630619161641
          }
        ],
        "step_warnings": []
      }
    },
    {
      "arguments": {
        "add_first_zero_for_plots": false,
        "add_last_zero_for_plots": false,
        "algorithm_download": true,
        "convert_data": "F to C",
        "csv_name": "../../../lib/resources/Master_Condenser_Fouling_58pct.csv",
        "csv_time_header": "TIMESTAMP",
        "csv_var": "T_Ret_Avg",
        "csv_var_dn": "T_Ret_Avg",
        "environment_period": "custom run period",
        "find_avail": true,
        "key_value": "ROOFTOP MIXED AIR OUTLET",
        "norm": 1,
        "plot_flag": true,
        "plot_name": "RTU Enter",
        "reporting_frequency": "Timestep",
        "scale": 1,
        "seconds": false,
        "timeseries_name": "System Node Temperature",
        "verbose_messages": false,
        "warning_messages": true,
        "year": true
      },
      "description": "Option 3 Description: Creates Objective Function from Timeseries Data",
      "measure_dir_name": "TimeseriesObjectiveFunction",
      "name": "high fault RTU enter",
      "result": {
        "completed_at": "20180511T145553Z",
        "measure_class_name": "TimeseriesObjectiveFunction",
        "measure_display_name": "TimeSeries Objective Function",
        "measure_name": "timeseries_objective_function",
        "measure_taxonomy": "Reporting.QAQC",
        "measure_type": "ReportingMeasure",
        "measure_uid": "6804217d-4737-45f3-82df-b81393c29ce3",
        "measure_version_id": "d41b5fec-0640-4337-965c-e1515b34d80e",
        "measure_version_modified": "20180322T191228Z",
        "measure_xml_checksum": "FFE04372",
        "started_at": "20180511T145552Z",
        "stderr": "",
        "stdout": "[OpenStudio.Measure] <0> OSArgumentVector is deprecated, use OpenStudio::Measure::OSArgumentVector instead.\n",
        "step_errors": [],
        "step_files": [
          "/Users/dgoldwas/Documents/GitHub/NREL/OpenStudio-fault-models/pat_projects/PAT_FRP_condernser_fouling/temp_data/analysis_238947ed-fb40-4d51-9134-f79aa4ddceb1/data_point_52b7d2e1-c8a2-4eab-b89c-e450c9c11867/run/007_TimeseriesObjectiveFunction/allseries_T_Ret_Avg.json",
          "/Users/dgoldwas/Documents/GitHub/NREL/OpenStudio-fault-models/pat_projects/PAT_FRP_condernser_fouling/temp_data/analysis_238947ed-fb40-4d51-9134-f79aa4ddceb1/data_point_52b7d2e1-c8a2-4eab-b89c-e450c9c11867/run/007_TimeseriesObjectiveFunction/report_RTU Enter.html",
          "/Users/dgoldwas/Documents/GitHub/NREL/OpenStudio-fault-models/pat_projects/PAT_FRP_condernser_fouling/temp_data/analysis_238947ed-fb40-4d51-9134-f79aa4ddceb1/data_point_52b7d2e1-c8a2-4eab-b89c-e450c9c11867/run/007_TimeseriesObjectiveFunction/timeseries_T_Ret_Avg.json",
          "/Users/dgoldwas/Documents/GitHub/NREL/OpenStudio-fault-models/pat_projects/PAT_FRP_condernser_fouling/temp_data/analysis_238947ed-fb40-4d51-9134-f79aa4ddceb1/data_point_52b7d2e1-c8a2-4eab-b89c-e450c9c11867/run/007_TimeseriesObjectiveFunction/timeseriesRTU Enter.csv"
        ],
        "step_info": [
          "csv_name: ../../../lib/resources/Master_Condenser_Fouling_58pct.csv",
          "environment_period: custom run period",
          "environment_periods: [\"custom run period\"]",
          "map: {\"T_Ret_Avg\"=>{:key=>\"ROOFTOP MIXED AIR OUTLET\", :var=>\"System Node Temperature\", :index=>0}}",
          "",
          "available timeseries: [\"Air System DX Cooling Coil Electric Energy\", \"Air System DX Heating Coil Electric Energy\", \"Air System Electric Energy\", \"Air System Gas Energy\", \"Cooling Coil Electric Energy\", \"Cooling Coil Total Cooling Rate\", \"Cooling:Electricity\", \"Cooling:EnergyTransfer\", \"Electricity:Facility\", \"Fan Electric Energy\", \"Fans:Electricity\", \"Gas:Facility\", \"General:InteriorEquipment:Electricity\", \"Heating Coil Electric Energy\", \"Heating:Electricity\", \"Heating:EnergyTransfer\", \"Heating:Gas\", \"InteriorEquipment:Electricity\", \"InteriorLights:Electricity\", \"Site Outdoor Air Drybulb Temperature\", \"System Node Current Density Volume Flow Rate\", \"System Node Relative Humidity\", \"System Node Setpoint Temperature\", \"System Node Standard Density Volume Flow Rate\", \"System Node Temperature\", \"Zone Air Relative Humidity\", \"Zone Air System Sensible Cooling Rate\", \"Zone Air System Sensible Heating Rate\", \"Zone Air Temperature\", \"Zone Mean Air Temperature\"]",
          "",
          "available EnvPeriod: CUSTOM RUN PERIOD, available ReportingFrequencies: [\"Daily\", \"Hourly\", \"Monthly\", \"Zone Timestep\"]",
          "available variable names: [\"Electricity:Facility\", \"Gas:Facility\", \"Zone Air Relative Humidity\"]",
          "variable names: Electricity:Facility",
          "available key value: [\"\"]",
          "variable names: Gas:Facility",
          "available key value: [\"\"]",
          "variable names: Zone Air Relative Humidity",
          "available key value: [\"1F PLENUM\", \"2F PLENUM\", \"ROOM 101\", \"ROOM 102\", \"ROOM 103\", \"ROOM 104\", \"ROOM 105\", \"ROOM 106\", \"ROOM 201\", \"ROOM 202\", \"ROOM 203\", \"ROOM 204\", \"ROOM 205\", \"ROOM 206\"]",
          "available variable names: [\"Air System DX Cooling Coil Electric Energy\", \"Air System DX Heating Coil Electric Energy\", \"Air System Electric Energy\", \"Air System Gas Energy\", \"Cooling:Electricity\", \"Cooling:EnergyTransfer\", \"Electricity:Facility\", \"Fan Electric Energy\", \"Fans:Electricity\", \"General:InteriorEquipment:Electricity\", \"Heating Coil Electric Energy\", \"Heating:Electricity\", \"Heating:EnergyTransfer\", \"Heating:Gas\", \"InteriorLights:Electricity\", \"Site Outdoor Air Drybulb Temperature\", \"System Node Current Density Volume Flow Rate\", \"System Node Relative Humidity\", \"System Node Setpoint Temperature\", \"System Node Temperature\", \"Zone Air Relative Humidity\", \"Zone Air System Sensible Cooling Rate\", \"Zone Air System Sensible Heating Rate\", \"Zone Air Temperature\", \"Zone Mean Air Temperature\"]",
          "variable names: Air System DX Cooling Coil Electric Energy",
          "available key value: [\"ROOFTOP\"]",
          "variable names: Air System DX Heating Coil Electric Energy",
          "available key value: [\"ROOFTOP\"]",
          "variable names: Air System Electric Energy",
          "available key value: [\"ROOFTOP\"]",
          "variable names: Air System Gas Energy",
          "available key value: [\"ROOFTOP\"]",
          "variable names: Cooling:Electricity",
          "available key value: [\"\"]",
          "variable names: Cooling:EnergyTransfer",
          "available key value: [\"\"]",
          "variable names: Electricity:Facility",
          "available key value: [\"\"]",
          "variable names: Fan Electric Energy",
          "available key value: [\"ROOFTOP SUPPLY FAN\"]",
          "variable names: Fans:Electricity",
          "available key value: [\"\"]",
          "variable names: General:InteriorEquipment:Electricity",
          "available key value: [\"\"]",
[...]
          "variable names: InteriorEquipment:Electricity",
          "available key value: [\"\"]",
          "variable names: InteriorLights:Electricity",
          "available key value: [\"\"]",
          "variable names: Site Outdoor Air Drybulb Temperature",
          "available key value: [\"Environment\"]",
          "variable names: System Node Standard Density Volume Flow Rate",
          "available key value: [\"ROOFTOP SUPPLY FAN OUTLET\"]",
          "variable names: System Node Temperature",
          "available key value: [\"ROOFTOP MIXED AIR OUTLET\", \"ROOFTOP SUPPLY FAN OUTLET\"]",
          "year: true",
          "seconds: false",
          "CSV Time format is correct: 8/29/17 0:00 mm:dd:yy hh:mm",
          "Begin timeseries parsing",
          "timezone = -5.0",
          "timezone = -05:00",
          "hdr is: AirSCFM_RTU_Tot_Avg",
          "csv_var is: AirSCFM_RTU_Tot_Avg",
          "var: System Node Standard Density Volume Flow Rate",
          "key: RoofTop Supply Fan Outlet",
          "sqlcall: custom run period,Timestep,System Node Standard Density Volume Flow Rate,RoofTop Supply Fan Outlet",
          "Saving timeseries_AirSCFM_RTU_Tot_Avg.json",
          "Copying timeseries_AirSCFM_RTU_Tot_Avg.json to downloads directory",
          "start plotting"
        ],
        "step_result": "Success",
        "step_values": [
          {
            "name": "csv_name",
            "value": "../../../lib/resources/Master_Condenser_Fouling_58pct.csv"
          },
          {
            "name": "csv_time_header",
            "value": "TIMESTAMP"
          },
          {
            "name": "csv_var",
            "value": "AirSCFM_RTU_Tot_Avg"
          },
          {
            "name": "convert_data",
            "value": "CFM to m3/s"
          },
          {
            "name": "csv_var_dn",
            "value": "AirSCFM_RTU_Tot_Avg"
          },
          {
            "name": "year",
            "value": true
          },
          {
            "name": "seconds",
            "value": false
          },
          {
            "name": "key_value",
            "value": "RoofTop Supply Fan Outlet"
          },
          {
            "name": "timeseries_name",
            "value": "System Node Standard Density Volume Flow Rate"
          },
          {
            "name": "reporting_frequency",
            "value": "Timestep"
          },
          {
            "name": "environment_period",
            "value": "custom run period"
          },
          {
            "name": "norm",
            "value": 1
          },
          {
            "name": "scale",
            "value": 1
          },
          {
            "name": "find_avail",
            "value": true
          },
          {
            "name": "algorithm_download",
            "value": true
          },
          {
            "name": "plot_flag",
            "value": true
          },
          {
            "name": "plot_name",
            "value": "Standard Airflow Volume"
          },
          {
            "name": "verbose_messages",
            "value": false
          },
          {
            "name": "warning_messages",
            "value": true
          },
          {
            "name": "add_first_zero_for_plots",
            "value": false
          },
          {
            "name": "add_last_zero_for_plots",
            "value": false
          },
          {
            "name": "diff",
            "units": "",
            "value": 9.204667644565216
          },
          {
            "name": "simdata",
            "units": "",
            "value": 115.40173235543486
          },
          {
            "name": "csvdata",
            "units": "",
            "value": 124.60640000000005
          },
          {
            "name": "cvrmse",
            "units": "",
            "value": 16.30223963998019
          },
          {
            "name": "nmbe",
            "units": "",
            "value": 7.386994283251271
          }
        ],
        "step_warnings": []
      }
    },
    {
      "arguments": {
        "add_first_zero_for_plots": false,
        "add_last_zero_for_plots": false,
        "algorithm_download": true,
        "convert_data": "F to C",
        "csv_name": "../../../lib/resources/Master_Condenser_Fouling_58pct.csv",
        "csv_time_header": "TIMESTAMP",
        "csv_var": "T_out_Avg",
        "csv_var_dn": "T_out_Avg",
        "environment_period": "custom run period",
        "find_avail": true,
        "key_value": "Environment",
        "norm": 1,
        "plot_flag": true,
        "plot_name": "Outdoor Air Temperature",
        "reporting_frequency": "Timestep",
        "scale": 1,
        "seconds": false,
        "timeseries_name": "Site Outdoor Air Drybulb Temperature",
        "verbose_messages": false,
        "warning_messages": true,
        "year": true
      },
      "description": "Option 3 Description: Creates Objective Function from Timeseries Data",
      "measure_dir_name": "TimeseriesObjectiveFunction",
      "name": "high fault OA",
      "result": {
        "completed_at": "20180511T145555Z",
        "measure_class_name": "TimeseriesObjectiveFunction",
        "measure_display_name": "TimeSeries Objective Function",
        "measure_name": "timeseries_objective_function",
        "measure_taxonomy": "Reporting.QAQC",
        "measure_type": "ReportingMeasure",
        "measure_uid": "6804217d-4737-45f3-82df-b81393c29ce3",
        "measure_version_id": "d41b5fec-0640-4337-965c-e1515b34d80e",
        "measure_version_modified": "20180322T191228Z",
        "measure_xml_checksum": "FFE04372",
        "started_at": "20180511T145554Z",
        "stderr": "",
        "stdout": "[OpenStudio.Measure] <0> OSArgumentVector is deprecated, use OpenStudio::Measure::OSArgumentVector instead.\n",
        "step_errors": [],
        "step_files": [
          "/Users/dgoldwas/Documents/GitHub/NREL/OpenStudio-fault-models/pat_projects/PAT_FRP_condernser_fouling/temp_data/analysis_238947ed-fb40-4d51-9134-f79aa4ddceb1/data_point_52b7d2e1-c8a2-4eab-b89c-e450c9c11867/run/016_TimeseriesObjectiveFunction/allseries_T_out_Avg.json",
          "/Users/dgoldwas/Documents/GitHub/NREL/OpenStudio-fault-models/pat_projects/PAT_FRP_condernser_fouling/temp_data/analysis_238947ed-fb40-4d51-9134-f79aa4ddceb1/data_point_52b7d2e1-c8a2-4eab-b89c-e450c9c11867/run/016_TimeseriesObjectiveFunction/report_Outdoor Air Temperature.html",
          "/Users/dgoldwas/Documents/GitHub/NREL/OpenStudio-fault-models/pat_projects/PAT_FRP_condernser_fouling/temp_data/analysis_238947ed-fb40-4d51-9134-f79aa4ddceb1/data_point_52b7d2e1-c8a2-4eab-b89c-e450c9c11867/run/016_TimeseriesObjectiveFunction/timeseries_T_out_Avg.json",
          "/Users/dgoldwas/Documents/GitHub/NREL/OpenStudio-fault-models/pat_projects/PAT_FRP_condernser_fouling/temp_data/analysis_238947ed-fb40-4d51-9134-f79aa4ddceb1/data_point_52b7d2e1-c8a2-4eab-b89c-e450c9c11867/run/016_TimeseriesObjectiveFunction/timeseriesOutdoor Air Temperature.csv"
        ],
        "step_info": [
          "csv_name: ../../../lib/resources/Master_Condenser_Fouling_58pct.csv",
          "environment_period: custom run period",
          "environment_periods: [\"custom run period\"]",
          "map: {\"T_out_Avg\"=>{:key=>\"Environment\", :var=>\"Site Outdoor Air Drybulb Temperature\", :index=>0}}",
          "",
          "available timeseries: [\"Air System DX Cooling Coil Electric Energy\", \"Air System DX Heating Coil Electric Energy\", \"Air System Electric Energy\", \"Air System Gas Energy\", \"Cooling Coil Electric Energy\", \"Cooling Coil Total Cooling Rate\", \"Cooling:Electricity\", \"Cooling:EnergyTransfer\", \"Electricity:Facility\", \"Fan Electric Energy\", \"Fans:Electricity\", \"Gas:Facility\", \"General:InteriorEquipment:Electricity\", \"Heating Coil Electric Energy\", \"Heating:Electricity\", \"Heating:EnergyTransfer\", \"Heating:Gas\", \"InteriorEquipment:Electricity\", \"InteriorLights:Electricity\", \"Site Outdoor Air Drybulb Temperature\", \"System Node Current Density Volume Flow Rate\", \"System Node Relative Humidity\", \"System Node Setpoint Temperature\", \"System Node Standard Density Volume Flow Rate\", \"System Node Temperature\", \"Zone Air Relative Humidity\", \"Zone Air System Sensible Cooling Rate\", \"Zone Air System Sensible Heating Rate\", \"Zone Air Temperature\", \"Zone Mean Air Temperature\"]",
          "",
          "available EnvPeriod: CUSTOM RUN PERIOD, available ReportingFrequencies: [\"Daily\", \"Hourly\", \"Monthly\", \"Zone Timestep\"]",
          "available variable names: [\"Electricity:Facility\", \"Gas:Facility\", \"Zone Air Relative Humidity\"]",
          "variable names: Electricity:Facility",
          "available key value: [\"\"]",
          "variable names: Gas:Facility",
          "available key value: [\"\"]",
          "variable names: Zone Air Relative Humidity",
          "available key value: [\"1F PLENUM\", \"2F PLENUM\", \"ROOM 101\", \"ROOM 102\", \"ROOM 103\", \"ROOM 104\", \"ROOM 105\", \"ROOM 106\", \"ROOM 201\", \"ROOM 202\", \"ROOM 203\", \"ROOM 204\", \"ROOM 205\", \"ROOM 206\"]",
          "available variable names: [\"Air System DX Cooling Coil Electric Energy\", \"Air System DX Heating Coil Electric Energy\", \"Air System Electric Energy\", \"Air System Gas Energy\", \"Cooling:Electricity\", \"Cooling:EnergyTransfer\", \"Electricity:Facility\", \"Fan Electric Energy\", \"Fans:Electricity\", \"General:InteriorEquipment:Electricity\", \"Heating Coil Electric Energy\", \"Heating:Electricity\", \"Heating:EnergyTransfer\", \"Heating:Gas\", \"InteriorLights:Electricity\", \"Site Outdoor Air Drybulb Temperature\", \"System Node Current Density Volume Flow Rate\", \"System Node Relative Humidity\", \"System Node Setpoint Temperature\", \"System Node Temperature\", \"Zone Air Relative Humidity\", \"Zone Air System Sensible Cooling Rate\", \"Zone Air System Sensible Heating Rate\", \"Zone Air Temperature\", \"Zone Mean Air Temperature\"]",
          "variable names: Air System DX Cooling Coil Electric Energy",
          "available key value: [\"ROOFTOP\"]",
          "variable names: Air System DX Heating Coil Electric Energy",
          "available key value: [\"ROOFTOP\"]",
          "variable names: Air System Electric Energy",
          "available key value: [\"ROOFTOP\"]",
          "variable names: Air System Gas Energy",
          "available key value: [\"ROOFTOP\"]",
          "variable names: Cooling:Electricity",
          "available key value: [\"\"]",
          "variable names: Cooling:EnergyTransfer",
          "available key value: [\"\"]",
          "variable names: Electricity:Facility",
          "available key value: [\"\"]",
          "variable names: Fan Electric Energy",
          "available key value: [\"ROOFTOP SUPPLY FAN\"]",
          "variable names: Fans:Electricity",
          "available key value: [\"\"]",
          "variable names: General:InteriorEquipment:Electricity",
          "available key value: [\"\"]",
          "variable names: Heating Coil Electric Energy",
          "available key value: [\"ROOM 102 REHEAT COIL\", \"ROOM 103 REHEAT COIL\", \"ROOM 104 REHEAT COIL\", \"ROOM 105 REHEAT COIL\", \"ROOM 106 REHEAT COIL\", \"ROOM 202 REHEAT COIL\", \"ROOM 203 REHEAT COIL\", \"ROOM 204 REHEAT COIL\", \"ROOM 205 REHEAT COIL\", \"ROOM 206 REHEAT COIL\"]",
          "variable names: Heating:Electricity",
          "available key value: [\"\"]",
          "variable names: Heating:EnergyTransfer",
          "available key value: [\"\"]",
          "variable names: Heating:Gas",
          "available key value: [\"\"]",
          "variable names: InteriorLights:Electricity",
          "available key value: [\"\"]",
          "variable names: Site Outdoor Air Drybulb Temperature",
          "available key value: [\"Environment\"]",
          "variable names: System Node Current Density Volume Flow Rate",
          "available key value: [\"ROOFTOP MIXED AIR OUTLET\", \"ROOFTOP SUPPLY FAN OUTLET\", \"ROOM 102 SUPPLY INLET\", \"ROOM 103 SUPPLY INLET\", \"ROOM 104 SUPPLY INLET\", \"ROOM 105 SUPPLY INLET\", \"ROOM 106 SUPPLY INLET\", \"ROOM 202 SUPPLY INLET\", \"ROOM 203 SUPPLY INLET\", \"ROOM 204 SUPPLY INLET\", \"ROOM 205 SUPPLY INLET\", \"ROOM 206 SUPPLY INLET\"]",
          "variable names: System Node Relative Humidity",
          "available key value: [\"ROOM 102 SUPPLY INLET\", \"ROOM 103 SUPPLY INLET\", \"ROOM 104 SUPPLY INLET\", \"ROOM 105 SUPPLY INLET\", \"ROOM 106 SUPPLY INLET\", \"ROOM 202 SUPPLY INLET\", \"ROOM 203 SUPPLY INLET\", \"ROOM 204 SUPPLY INLET\", \"ROOM 205 SUPPLY INLET\", \"ROOM 206 SUPPLY INLET\"]",
          "variable names: System Node Setpoint Temperature",
          "available key value: [\"ROOFTOP SUPPLY FAN OUTLET\"]",
          "variable names: System Node Temperature",
          "available key value: [\"ROOFTOP HEATING COIL OUTLET\", \"ROOFTOP MIXED AIR OUTLET\", \"ROOFTOP SUPPLY FAN OUTLET\", \"ROOM 102 SUPPLY INLET\", \"ROOM 103 SUPPLY INLET\", \"ROOM 104 SUPPLY INLET\", \"ROOM 105 SUPPLY INLET\", \"ROOM 106 SUPPLY INLET\", \"ROOM 202 SUPPLY INLET\", \"ROOM 203 SUPPLY INLET\", \"ROOM 204 SUPPLY INLET\", \"ROOM 205 SUPPLY INLET\", \"ROOM 206 SUPPLY INLET\"]",
          "variable names: Zone Air Relative Humidity",
          "available key value: [\"1F PLENUM\", \"2F PLENUM\", \"ROOM 101\", \"ROOM 102\", \"ROOM 103\", \"ROOM 104\", \"ROOM 105\", \"ROOM 106\", \"ROOM 201\", \"ROOM 202\", \"ROOM 203\", \"ROOM 204\", \"ROOM 205\", \"ROOM 206\"]",
          "variable names: Zone Air System Sensible Cooling Rate",
          "available key value: [\"1F PLENUM\", \"2F PLENUM\", \"ROOM 101\", \"ROOM 102\", \"ROOM 103\", \"ROOM 104\", \"ROOM 105\", \"ROOM 106\", \"ROOM 201\", \"ROOM 202\", \"ROOM 203\", \"ROOM 204\", \"ROOM 205\", \"ROOM 206\"]",
          "variable names: Zone Air System Sensible Heating Rate",
          "available key value: [\"1F PLENUM\", \"2F PLENUM\", \"ROOM 101\", \"ROOM 102\", \"ROOM 103\", \"ROOM 104\", \"ROOM 105\", \"ROOM 106\", \"ROOM 201\", \"ROOM 202\", \"ROOM 203\", \"ROOM 204\", \"ROOM 205\", \"ROOM 206\"]",
          "variable names: Zone Air Temperature",
          "available key value: [\"1F PLENUM\", \"2F PLENUM\", \"ROOM 101\", \"ROOM 102\", \"ROOM 103\", \"ROOM 104\", \"ROOM 105\", \"ROOM 106\", \"ROOM 201\", \"ROOM 202\", \"ROOM 203\", \"ROOM 204\", \"ROOM 205\", \"ROOM 206\"]",
          "variable names: Zone Mean Air Temperature",
          "available key value: [\"1F PLENUM\", \"2F PLENUM\", \"ROOM 101\", \"ROOM 102\", \"ROOM 103\", \"ROOM 104\", \"ROOM 105\", \"ROOM 106\", \"ROOM 201\", \"ROOM 202\", \"ROOM 203\", \"ROOM 204\", \"ROOM 205\", \"ROOM 206\"]",
          "available variable names: [\"Site Outdoor Air Drybulb Temperature\"]",
          "variable names: Site Outdoor Air Drybulb Temperature",
          "available key value: [\"Environment\"]",
          "available variable names: [\"Cooling Coil Electric Energy\", \"Cooling Coil Total Cooling Rate\", \"Electricity:Facility\", \"Fan Electric Energy\", \"Gas:Facility\", \"Heating:Electricity\", \"InteriorEquipment:Electricity\", \"InteriorLights:Electricity\", \"Site Outdoor Air Drybulb Temperature\", \"System Node Standard Density Volume Flow Rate\", \"System Node Temperature\"]",
          "variable names: Cooling Coil Electric Energy",
          "available key value: [\"ROOFTOP COOLING COIL\"]",
          "variable names: Cooling Coil Total Cooling Rate",
          "available key value: [\"ROOFTOP COOLING COIL\"]",
          "variable names: Electricity:Facility",
          "available key value: [\"\"]",
          "variable names: Fan Electric Energy",
          "available key value: [\"ROOFTOP SUPPLY FAN\"]",
          "variable names: Gas:Facility",
          "available key value: [\"\"]",
          "variable names: Heating:Electricity",
          "available key value: [\"\"]",
          "variable names: InteriorEquipment:Electricity",
          "available key value: [\"\"]",
          "variable names: InteriorLights:Electricity",
          "available key value: [\"\"]",
          "variable names: Site Outdoor Air Drybulb Temperature",
          "available key value: [\"Environment\"]",
          "variable names: System Node Standard Density Volume Flow Rate",
          "available key value: [\"ROOFTOP SUPPLY FAN OUTLET\"]",
          "variable names: System Node Temperature",
          "available key value: [\"ROOFTOP MIXED AIR OUTLET\", \"ROOFTOP SUPPLY FAN OUTLET\"]",
          "year: true",
          "seconds: false",
          "CSV Time format is correct: 8/29/17 0:00 mm:dd:yy hh:mm",
          "Begin timeseries parsing",
          "timezone = -5.0",
          "timezone = -05:00",
          "hdr is: T_out_Avg",
          "csv_var is: T_out_Avg",
          "var: Site Outdoor Air Drybulb Temperature",
          "key: Environment",
          "sqlcall: custom run period,Timestep,Site Outdoor Air Drybulb Temperature,Environment",
          "Saving timeseries_T_out_Avg.json",
          "Copying timeseries_T_out_Avg.json to downloads directory",
          "start plotting"
        ],
        "step_result": "Success",
        "step_values": [
          {
            "name": "csv_name",
            "value": "../../../lib/resources/Master_Condenser_Fouling_58pct.csv"
          },
          {
            "name": "csv_time_header",
            "value": "TIMESTAMP"
          },
          {
            "name": "csv_var",
            "value": "T_out_Avg"
          },
          {
            "name": "convert_data",
            "value": "F to C"
          },
          {
            "name": "csv_var_dn",
            "value": "T_out_Avg"
          },
          {
            "name": "year",
            "value": true
          },
          {
            "name": "seconds",
            "value": false
          },
          {
            "name": "key_value",
            "value": "Environment"
          },
          {
            "name": "timeseries_name",
            "value": "Site Outdoor Air Drybulb Temperature"
          },
          {
            "name": "reporting_frequency",
            "value": "Timestep"
          },
          {
            "name": "environment_period",
            "value": "custom run period"
          },
          {
            "name": "norm",
            "value": 1
          },
          {
            "name": "scale",
            "value": 1
          },
          {
            "name": "find_avail",
            "value": true
          },
          {
            "name": "algorithm_download",
            "value": true
          },
          {
            "name": "plot_flag",
            "value": true
          },
          {
            "name": "plot_name",
            "value": "Outdoor Air Temperature"
          },
          {
            "name": "verbose_messages",
            "value": false
          },
          {
            "name": "warning_messages",
            "value": true
          },
          {
            "name": "add_first_zero_for_plots",
            "value": false
          },
          {
            "name": "add_last_zero_for_plots",
            "value": false
          },
          {
            "name": "diff",
            "units": "",
            "value": 3.0703079999999687
          },
          {
            "name": "simdata",
            "units": "",
            "value": 2117.0000000000005
          },
          {
            "name": "csvdata",
            "units": "",
            "value": 2117.574948
          },
          {
            "name": "cvrmse",
            "units": "",
            "value": 0.16713952334432702
          },
          {
            "name": "nmbe",
            "units": "",
            "value": 0.02715124678552579
          }
        ],
        "step_warnings": []
      }
    }
  ],
  "updated_at": "20180511T145558Z",
  "weather_file": "FRP2-2_DataWeather_Aug_Sep_2017_clean_reducedCST.epw"
}